# CIF file generated by openbabel 2.3.2, see http://openbabel.sf.net
data_I
_chemical_name_common ''
_cell_length_a 18.4951
_cell_length_b 18.4951
_cell_length_c 46.337
_cell_angle_alpha 90
_cell_angle_beta 90
_cell_angle_gamma 120
_space_group_name_H-M_alt 'R -3 m'
_space_group_name_Hall '-R 3 2"'
loop_
    _symmetry_equiv_pos_as_xyz
    'x,y,z'
    '-y,x-y,z'
    '-x+y,-x,z'
    'y,x,-z'
    'x-y,-y,-z'
    '-x,-x+y,-z'
    '-x,-y,-z'
    'y,-x+y,-z'
    'x-y,x,-z'
    '-y,-x,z'
    '-x+y,y,z'
    'x,x-y,z'
    '2/3+x,1/3+y,1/3+z'
    '2/3-y,1/3+x-y,1/3+z'
    '2/3-x+y,1/3-x,1/3+z'
    '2/3+y,1/3+x,1/3-z'
    '2/3+x-y,1/3-y,1/3-z'
    '2/3-x,1/3-x+y,1/3-z'
    '2/3-x,1/3-y,1/3-z'
    '2/3+y,1/3-x+y,1/3-z'
    '2/3+x-y,1/3+x,1/3-z'
    '2/3-y,1/3-x,1/3+z'
    '2/3-x+y,1/3+y,1/3+z'
    '2/3+x,1/3+x-y,1/3+z'
    '1/3+x,2/3+y,2/3+z'
    '1/3-y,2/3+x-y,2/3+z'
    '1/3-x+y,2/3-x,2/3+z'
    '1/3+y,2/3+x,2/3-z'
    '1/3+x-y,2/3-y,2/3-z'
    '1/3-x,2/3-x+y,2/3-z'
    '1/3-x,2/3-y,2/3-z'
    '1/3+y,2/3-x+y,2/3-z'
    '1/3+x-y,2/3+x,2/3-z'
    '1/3-y,2/3-x,2/3+z'
    '1/3-x+y,2/3+y,2/3+z'
    '1/3+x,2/3+x-y,2/3+z'
loop_
    _atom_site_type_symbol
    _atom_site_label
    _atom_site_Cartn_x
    _atom_site_Cartn_y
    _atom_site_Cartn_z
     Cu  Cu1     5.28923   13.73189   16.54231
      O   O1     4.88548   11.89920   17.02421
      O   O2     3.78872   11.29054   15.18927
      O   O3     4.42588    4.02673   29.09037
      O   O4     5.53928    4.69625   30.96239
      O   O5     6.20418   14.26013   18.40089
      H   H1     6.30405   15.10584   18.35872
      C   C1     4.16972   11.06310   16.37086
      C   C2     3.10070    8.88796   16.55621
      H   H2     3.08683    8.89597   15.62947
      C   C3     3.83033    9.87942   17.20493
      C   C4     4.18174    9.69683   18.53480
      H   H3     4.59973   10.37275   19.02134
      C   C5     4.12718    8.29532   20.57363
      C  C11     3.76098    8.50675   19.13718
      C  C21     5.10095    7.73311   25.82361
      C  C22     5.34508    7.59216   27.26006
      C  C23     4.95484    6.44213   27.94121
      H  H12     4.41293    5.82706   27.50101
      C  C24     5.37375    6.17784   29.23402
      C  C25     6.19678    7.10043   29.88737
      H  H13     6.55744    6.89221   30.72143
      C  C26     5.10927    4.81958   29.83084
      O  O1E     7.86227   10.18055   29.31279
      O  O2E     7.88353    8.92640   31.14773
      O  O3E     1.27431    5.84629   17.24663
      O  O4E     1.29743    7.14528   15.37462
      C  C1E     7.49606    9.14263   29.96614
      C  C2E     6.14684    7.12926   29.78079
      H  H2E     6.16072    7.12126   30.70753
      C  C3E     6.64066    8.25688   29.13207
      C  C4E     6.30683    8.46991   27.80220
      H  H3E     6.68320    9.16986   27.31566
      C  C5E     5.12037    7.72190   25.76337
      C  C6E     3.96350    8.38982   25.34634
      C  C7E     3.70272    8.54038   23.99793
      C  C8E     4.59603    8.02463   23.05729
      C  C9E     5.75013    7.35831   23.46969
      C  C10E     5.99703    7.21576   24.82273
      C  C11E     5.48657    7.51048   27.19982
      C  C12E     7.12893    6.56226   25.25830
      H  H4E     7.34533    6.43732   26.15724
      C  C13E     8.02502    6.04490   24.34546
      H  H5E     8.78795    5.60443   24.59568
      C  C14E     7.77256    6.19066   22.99706
      H  H6E     8.34406    5.86070   22.34370
      C  C15E     6.64899    6.83935   22.54759
      H  H7E     6.45479    6.95147   21.64865
      C  C16E     3.08406    8.89757   26.29161
      H  H8E     3.28380    8.78224   27.19519
      C  C17E     1.93274    9.56228   25.89312
      H  H9E     1.35569    9.89544   26.54183
      C  C18E     1.67473    9.71124   24.54934
      H  H10E     0.90071   10.15812   24.28986
      C  C19E     2.54862    9.20670   23.60870
      H  H11E     2.35997    9.31562   22.70513
      C  C20E     4.33248    8.17679   21.59304
      C  C21E     4.14660    8.28411   20.51339
      C  C22E     3.90247    8.42506   19.07694
      C  C23E     3.10163    7.51208   18.39579
      H  H12E     2.83992    6.73524   18.83599
      C  C24E     2.66329    7.74272   17.10299
      C  C25E     3.05077    8.91679   16.44963
      H  H13E     2.69011    9.12501   15.61557
      C  C26E     1.61925    6.83455   16.50617
      O  O1R     4.36207    4.11803   29.31279
      O  O2R     5.45883    4.72668   31.14773
      O  O3R     4.82167   11.99049   17.24663
      O  O4R     3.70827   11.32097   15.37462
      C  C1R     5.07783    4.95413   29.96614
      C  C3R     5.41721    6.13780   29.13207
      C  C4R     5.06581    6.32040   27.80220
      H  H3R     4.64782    5.64447   27.31566
      C  C23R     4.29271    9.57510   18.39579
      H  H12R     4.83462   10.19016   18.83599
      C  C24R     3.87380    9.83938   17.10299
      C  C26R     4.13828   11.19764   16.50617
      O  O1W     1.38528    5.83668   17.02421
      O  O2W     1.36401    7.09082   15.18927
      O  O3W     7.97324   10.17094   29.09037
      O  O4W     7.95012    8.87194   30.96239
      C  C1W     1.75148    6.87459   16.37086
      C  C3W     2.60688    7.76034   17.20493
      C  C4W     2.94072    7.54732   18.53480
      H  H3W     2.56434    6.84736   19.02134
      C  C23W     6.14592    8.50515   27.94121
      H  H12W     6.40763    9.28198   27.50101
      C  C24W     6.58425    8.27450   29.23402
      C  C26W     7.62830    9.18267   29.83084
      H  H1V     6.98652   13.92377   18.35872
     Cu  Cu1P     3.95831   12.96349   14.34904
      O  O5P     3.04336   12.43524   12.49046
      H  H1P     2.26093   12.77165   12.53277
      H  H1X     2.94340   11.58958   12.53277
     Cu  Cu1B    -0.00000    4.57067   16.54231
     Cu  Cu1D     3.95832    2.28534   29.79469
     Cu  Cu1E     9.24755   11.44655   29.79469
     Cu  Cu1F     5.28924    3.05373   31.98796
     Cu  Cu1H     9.24756    9.90974   31.98796
     Cu  Cu1Q    -0.00001    6.10748   14.34904
      O  O1P     5.74734   12.39680   13.86714
      O  O1V     3.50019   14.29858   17.02421
      O  O1X     4.36206   14.79618   13.86714
      O  O2P     6.82283   13.04230   15.70208
      O  O2V     2.42471   13.65308   15.18927
      O  O2X     5.45882   15.40484   15.70208
      O  O3D     3.54736   14.19767   17.24663
      O  O3L     4.42587   14.70488   13.64472
      O  O3BA     5.70018   12.49771   13.64472
      O  O4D     2.41084   13.56819   15.37462
      O  O4L     5.53927   15.37440   15.51673
      O  O4BA     6.83670   13.12719   15.51673
