data_crystal

_cell_length_a    17.58380
_cell_length_b    17.58380
_cell_length_c    17.58380
_cell_angle_alpha 96.82990
_cell_angle_beta  96.82990
_cell_angle_gamma 96.82990

_space_group_name_Hall 'P 1'
_space_group_name_H-M_alt 'P 1'

loop_
_symmetry_equiv_pos_as_xyz
 'x,y,z'

loop_
_atom_site_label
_atom_site_type_symbol
_atom_site_fract_x
_atom_site_fract_y
_atom_site_fract_z
Cu         Cu      0.30717   0.90466   0.90466
Cu         Cu      0.90466   0.30717   0.90466
Cu         Cu      0.90466   0.90466   0.30717
Cu         Cu      0.85178   0.16317   0.85178
Cu         Cu      0.85178   0.85178   0.16317
Cu         Cu      0.16317   0.85178   0.85178
H          H       0.21310   0.48810   0.83840
H          H       0.18360   0.60860   0.83020
H          H       0.42540   0.56750   0.92710
H          H       0.39530   0.69200   0.92720
H          H       0.23530   0.38650   0.89650
H          H       0.14710   0.29800   0.88810
H          H       0.83840   0.21310   0.48810
H          H       0.83020   0.18360   0.60860
H          H       0.92710   0.42540   0.56750
H          H       0.92720   0.39530   0.69200
H          H       0.89650   0.23530   0.38650
H          H       0.88810   0.14710   0.29800
H          H       0.48810   0.83840   0.21310
H          H       0.60860   0.83020   0.18360
H          H       0.56750   0.92710   0.42540
H          H       0.69200   0.92720   0.39530
H          H       0.38650   0.89650   0.23530
H          H       0.29800   0.88810   0.14710
H          H       0.48810   0.21310   0.83840
H          H       0.60860   0.18360   0.83020
H          H       0.56750   0.42540   0.92710
H          H       0.69200   0.39530   0.92720
H          H       0.38650   0.23530   0.89650
H          H       0.29800   0.14710   0.88810
H          H       0.21310   0.83840   0.48810
H          H       0.18360   0.83020   0.60860
H          H       0.42540   0.92710   0.56750
H          H       0.39530   0.92720   0.69200
H          H       0.23530   0.89650   0.38650
H          H       0.14710   0.88810   0.29800
H          H       0.83840   0.48810   0.21310
H          H       0.83020   0.60860   0.18360
H          H       0.92710   0.56750   0.42540
H          H       0.92720   0.69200   0.39530
H          H       0.89650   0.38650   0.23530
H          H       0.88810   0.29800   0.14710
H          H       0.45385   0.45385   0.88360
H          H       0.07015   0.07015   0.87370
H          H       0.88360   0.45385   0.45385
H          H       0.87370   0.07015   0.07015
H          H       0.45385   0.88360   0.45385
H          H       0.07015   0.87370   0.07015
C          C       0.28730   0.66400   0.88290
C          C       0.25140   0.52950   0.85710
C          C       0.23230   0.60150   0.85280
C          C       0.32380   0.51170   0.88740
C          C       0.37480   0.57400   0.90970
C          C       0.35690   0.65060   0.90890
C          C       0.27100   0.74610   0.88070
C          C       0.01420   0.20350   0.88030
C          C       0.34300   0.43260   0.88670
C          C       0.28480   0.37390   0.89290
C          C       0.09780   0.19100   0.88420
C          C       0.15710   0.24720   0.88810
C          C       0.88290   0.28730   0.66400
C          C       0.85710   0.25140   0.52950
C          C       0.85280   0.23230   0.60150
C          C       0.88740   0.32380   0.51170
C          C       0.90970   0.37480   0.57400
C          C       0.90890   0.35690   0.65060
C          C       0.88070   0.27100   0.74610
C          C       0.88030   0.01420   0.20350
C          C       0.88670   0.34300   0.43260
C          C       0.89290   0.28480   0.37390
C          C       0.88420   0.09780   0.19100
C          C       0.88810   0.15710   0.24720
C          C       0.66400   0.88290   0.28730
C          C       0.52950   0.85710   0.25140
C          C       0.60150   0.85280   0.23230
C          C       0.51170   0.88740   0.32380
C          C       0.57400   0.90970   0.37480
C          C       0.65060   0.90890   0.35690
C          C       0.74610   0.88070   0.27100
C          C       0.20350   0.88030   0.01420
C          C       0.43260   0.88670   0.34300
C          C       0.37390   0.89290   0.28480
C          C       0.19100   0.88420   0.09780
C          C       0.24720   0.88810   0.15710
C          C       0.66400   0.28730   0.88290
C          C       0.52950   0.25140   0.85710
C          C       0.60150   0.23230   0.85280
C          C       0.51170   0.32380   0.88740
C          C       0.57400   0.37480   0.90970
C          C       0.65060   0.35690   0.90890
C          C       0.74610   0.27100   0.88070
C          C       0.20350   0.01420   0.88030
C          C       0.43260   0.34300   0.88670
C          C       0.37390   0.28480   0.89290
C          C       0.19100   0.09780   0.88420
C          C       0.24720   0.15710   0.88810
C          C       0.28730   0.88290   0.66400
C          C       0.25140   0.85710   0.52950
C          C       0.23230   0.85280   0.60150
C          C       0.32380   0.88740   0.51170
C          C       0.37480   0.90970   0.57400
C          C       0.35690   0.90890   0.65060
C          C       0.27100   0.88070   0.74610
C          C       0.01420   0.88030   0.20350
C          C       0.34300   0.88670   0.43260
C          C       0.28480   0.89290   0.37390
C          C       0.09780   0.88420   0.19100
C          C       0.15710   0.88810   0.24720
C          C       0.88290   0.66400   0.28730
C          C       0.85710   0.52950   0.25140
C          C       0.85280   0.60150   0.23230
C          C       0.88740   0.51170   0.32380
C          C       0.90970   0.57400   0.37480
C          C       0.90890   0.65060   0.35690
C          C       0.88070   0.74610   0.27100
C          C       0.88030   0.20350   0.01420
C          C       0.88670   0.43260   0.34300
C          C       0.89290   0.37390   0.28480
C          C       0.88420   0.19100   0.09780
C          C       0.88810   0.24720   0.15710
C          C       0.41425   0.41425   0.88540
C          C       0.29655   0.29655   0.89400
C          C       0.23235   0.23235   0.89220
C          C       0.11049   0.11050   0.87941
C          C       0.88540   0.41425   0.41425
C          C       0.89400   0.29655   0.29655
C          C       0.89220   0.23235   0.23235
C          C       0.87941   0.11049   0.11049
C          C       0.41425   0.88540   0.41425
C          C       0.29655   0.89400   0.29655
C          C       0.23235   0.89220   0.23235
C          C       0.11049   0.87941   0.11049
O          O       0.32330   0.79960   0.90120
O          O       0.95980   0.14910   0.85710
O          O       0.00628   0.27395   0.90072
O          O       0.19869   0.75245   0.85642
O          O       0.90120   0.32330   0.79960
O          O       0.85710   0.95980   0.14910
O          O       0.90072   0.00628   0.27395
O          O       0.85642   0.19869   0.75245
O          O       0.79960   0.90120   0.32330
O          O       0.14910   0.85710   0.95980
O          O       0.27395   0.90072   0.00628
O          O       0.75245   0.85642   0.19869
O          O       0.79960   0.32330   0.90120
O          O       0.14910   0.95980   0.85710
O          O       0.27395   0.00628   0.90072
O          O       0.75245   0.19869   0.85642
O          O       0.32330   0.90120   0.79960
O          O       0.95980   0.85710   0.14910
O          O       0.00628   0.90072   0.27395
O          O       0.19869   0.85642   0.75245
O          O       0.90120   0.79960   0.32330
O          O       0.85710   0.14910   0.95980
O          O       0.90072   0.27395   0.00628
O          O       0.85642   0.75245   0.19869
