data_crystal
 
_cell_length_a    14.67660
_cell_length_b    14.67660
_cell_length_c    28.00330
_cell_angle_alpha 90.00000
_cell_angle_beta  90.00000
_cell_angle_gamma 90.00000
 
_symmetry_space_group_name_Hall 'P 1'
_symmetry_space_group_name_H-M  'P 1'
_symmetry_int_tables_number      1
 
loop_
_symmetry_equiv_pos_as_xyz
 'x,y,z' 
 
loop_
_atom_site_label
_atom_site_type_symbol
_atom_site_fract_x
_atom_site_fract_y
_atom_site_fract_z
Zr         Zr      0.00000   0.00000   0.08772 
Zr         Zr      0.50000   0.50000   0.58772 
Zr         Zr      0.00000   0.00000   0.91228 
Zr         Zr      0.50000   0.50000   0.41228 
Zr         Zr      0.16211   0.05358   0.00000 
Zr         Zr      0.05358   0.83789   0.00000 
Zr         Zr      0.66211   0.55358   0.50000 
Zr         Zr      0.33789   0.44642   0.50000 
Zr         Zr      0.44642   0.66211   0.50000 
Zr         Zr      0.55358   0.33789   0.50000 
O          O       0.12280   0.03610   0.12801 
O          O       0.87720  -0.03610   0.12801 
O          O      -0.03610   0.12280   0.12801 
O          O       0.03610   0.87720   0.12801 
O          O      -0.37720   0.53610   0.62801 
O          O       0.37720   0.46390   0.62801 
O          O       0.46390  -0.37720   0.62801 
O          O       0.53610   0.37720   0.62801 
O          O       0.87720  -0.03610   0.87199 
O          O       0.12280   0.03610   0.87199 
O          O       0.03610   0.87720   0.87199 
O          O      -0.03610   0.12280   0.87199 
O          O       0.37720   0.46390   0.37199 
O          O      -0.37720   0.53610   0.37199 
O          O       0.53610   0.37720   0.37199 
O          O       0.46390  -0.37720   0.37199 
C          C       0.50000   0.00000   0.25000 
C          C       0.00000   0.50000   0.25000 
C          C       0.00000   0.50000   0.75000 
C          C       0.50000   0.00000   0.75000 
O          O       0.79310   0.47900   0.50000 
O          O       0.20690   0.52100   0.50000 
O          O       0.52100   0.79310   0.50000 
O          O       0.47900   0.20690   0.50000 
O          O       0.22570   0.18850   0.00000 
O          O       0.18850   0.77430   0.00000 
O          O       0.72570   0.68850   0.50000 
O          O       0.27430   0.31150   0.50000 
O          O       0.31150   0.72570   0.50000 
O          O       0.68850   0.27430   0.50000 
O          O       0.22650   0.07310   0.07310 
O          O       0.77350  -0.07310   0.07310 
O          O      -0.07310   0.22650   0.07310 
O          O       0.07310   0.77350   0.07310 
O          O      -0.27350   0.57310   0.57310 
O          O       0.27350   0.42690   0.57310 
O          O       0.42690  -0.27350   0.57310 
O          O       0.57310   0.27350   0.57310 
O          O       0.77350  -0.07310   0.92690 
O          O       0.22650   0.07310   0.92690 
O          O       0.07310   0.77350   0.92690 
O          O      -0.07310   0.22650   0.92690 
O          O       0.27350   0.42690   0.42690 
O          O      -0.27350   0.57310   0.42690 
O          O       0.57310   0.27350   0.42690 
O          O       0.42690  -0.27350   0.42690 
C          C       0.27580   0.04820   0.15202 
C          C       0.72420  -0.04820   0.15202 
C          C      -0.04820   0.27580   0.15202 
C          C       0.04820   0.72420   0.15202 
C          C      -0.22420   0.54820   0.65202 
C          C       0.22420   0.45180   0.65202 
C          C       0.45180  -0.22420   0.65202 
C          C       0.54820   0.22420   0.65202 
C          C       0.72420  -0.04820   0.84798 
C          C       0.27580   0.04820   0.84798 
C          C       0.04820   0.72420   0.84798 
C          C      -0.04820   0.27580   0.84798 
C          C       0.22420   0.45180   0.34798 
C          C      -0.22420   0.54820   0.34798 
C          C       0.54820   0.22420   0.34798 
C          C       0.45180  -0.22420   0.34798 
C          C       0.26173  -0.00590   0.19207 
C          C       0.73827   0.00590   0.19207 
C          C       0.00590   0.26173   0.19207 
C          C      -0.00590   0.73827   0.19207 
C          C      -0.23827   0.49410   0.69207 
C          C       0.23827   0.50590   0.69207 
C          C       0.50590  -0.23827   0.69207 
C          C       0.49410   0.23827   0.69207 
C          C       0.73827   0.00590   0.80793 
C          C       0.26173  -0.00590   0.80793 
C          C      -0.00590   0.73827   0.80793 
C          C       0.00590   0.26173   0.80793 
C          C       0.23827   0.50590   0.30793 
C          C      -0.23827   0.49410   0.30793 
C          C       0.49410   0.23827   0.30793 
C          C       0.50590  -0.23827   0.30793 
H          H       0.20400  -0.03330   0.19730 
H          H       0.79600   0.03330   0.19730 
H          H       0.03330   0.20400   0.19730 
H          H      -0.03330   0.79600   0.19730 
H          H      -0.29600   0.46670   0.69730 
H          H       0.29600   0.53330   0.69730 
H          H       0.53330  -0.29600   0.69730 
H          H       0.46670   0.29600   0.69730 
H          H       0.79600   0.03330   0.80270 
H          H       0.20400  -0.03330   0.80270 
H          H      -0.03330   0.79600   0.80270 
H          H       0.03330   0.20400   0.80270 
H          H       0.29600   0.53330   0.30270 
H          H      -0.29600   0.46670   0.30270 
H          H       0.46670   0.29600   0.30270 
H          H       0.53330  -0.29600   0.30270 
C          C       0.33217  -0.01990   0.22443 
C          C       0.66783   0.01990   0.22443 
C          C       0.01990   0.33217   0.22443 
C          C      -0.01990   0.66783   0.22443 
C          C      -0.16783   0.48010   0.72443 
C          C       0.16783   0.51990   0.72443 
C          C       0.51990  -0.16783   0.72443 
C          C       0.48010   0.16783   0.72443 
C          C       0.66783   0.01990   0.77557 
C          C       0.33217  -0.01990   0.77557 
C          C      -0.01990   0.66783   0.77557 
C          C       0.01990   0.33217   0.77557 
C          C       0.16783   0.51990   0.27557 
C          C      -0.16783   0.48010   0.27557 
C          C       0.48010   0.16783   0.27557 
C          C       0.51990  -0.16783   0.27557 
H          H       0.32260  -0.05690   0.25180 
H          H       0.67740   0.05690   0.25180 
H          H       0.05690   0.32260   0.25180 
H          H      -0.05690   0.67740   0.25180 
H          H      -0.17740   0.44310   0.75180 
H          H       0.17740   0.55690   0.75180 
H          H       0.55690  -0.17740   0.75180 
H          H       0.44310   0.17740   0.75180 
H          H       0.67740   0.05690   0.74820 
H          H       0.32260  -0.05690   0.74820 
H          H      -0.05690   0.67740   0.74820 
H          H       0.05690   0.32260   0.74820 
H          H       0.17740   0.55690   0.24820 
H          H      -0.17740   0.44310   0.24820 
H          H       0.44310   0.17740   0.24820 
H          H       0.55690  -0.17740   0.24820 
C          C       0.41668   0.02030   0.21674 
C          C       0.58332  -0.02030   0.21674 
C          C      -0.02030   0.41668   0.21674 
C          C       0.02030   0.58332   0.21674 
C          C      -0.08332   0.52030   0.71674 
C          C       0.08332   0.47970   0.71674 
C          C       0.47970  -0.08332   0.71674 
C          C       0.52030   0.08332   0.71674 
C          C       0.58332  -0.02030   0.78326 
C          C       0.41668   0.02030   0.78326 
C          C       0.02030   0.58332   0.78326 
C          C      -0.02030   0.41668   0.78326 
C          C       0.08332   0.47970   0.28326 
C          C      -0.08332   0.52030   0.28326 
C          C       0.52030   0.08332   0.28326 
C          C       0.47970  -0.08332   0.28326 
C          C       0.43075   0.07440   0.17668 
C          C       0.56925  -0.07440   0.17668 
C          C      -0.07440   0.43075   0.17668 
C          C       0.07440   0.56925   0.17668 
C          C      -0.06925   0.57440   0.67668 
C          C       0.06925   0.42560   0.67668 
C          C       0.42560  -0.06925   0.67668 
C          C       0.57440   0.06925   0.67668 
C          C       0.56925  -0.07440   0.82332 
C          C       0.43075   0.07440   0.82332 
C          C       0.07440   0.56925   0.82332 
C          C      -0.07440   0.43075   0.82332 
C          C       0.06925   0.42560   0.32332 
C          C      -0.06925   0.57440   0.32332 
C          C       0.57440   0.06925   0.32332 
C          C       0.42560  -0.06925   0.32332 
H          H       0.48850   0.10190   0.17140 
H          H       0.51150  -0.10190   0.17140 
H          H      -0.10190   0.48850   0.17140 
H          H       0.10190   0.51150   0.17140 
H          H      -0.01150   0.60190   0.67140 
H          H       0.01150   0.39810   0.67140 
H          H       0.39810  -0.01150   0.67140 
H          H       0.60190   0.01150   0.67140 
H          H       0.51150  -0.10190   0.82860 
H          H       0.48850   0.10190   0.82860 
H          H       0.10190   0.51150   0.82860 
H          H      -0.10190   0.48850   0.82860 
H          H       0.01150   0.39810   0.32860 
H          H      -0.01150   0.60190   0.32860 
H          H       0.60190   0.01150   0.32860 
H          H       0.39810  -0.01150   0.32860 
C          C       0.36031   0.08840   0.14432 
C          C       0.63969  -0.08840   0.14432 
C          C      -0.08840   0.36031   0.14432 
C          C       0.08840   0.63969   0.14432 
C          C      -0.13969   0.58840   0.64432 
C          C       0.13969   0.41160   0.64432 
C          C       0.41160  -0.13969   0.64432 
C          C       0.58840   0.13969   0.64432 
C          C       0.63969  -0.08840   0.85568 
C          C       0.36031   0.08840   0.85568 
C          C       0.08840   0.63969   0.85568 
C          C      -0.08840   0.36031   0.85568 
C          C       0.13969   0.41160   0.35568 
C          C      -0.13969   0.58840   0.35568 
C          C       0.58840   0.13969   0.35568 
C          C       0.41160  -0.13969   0.35568 
H          H       0.36990   0.12540   0.11690 
H          H       0.63010  -0.12540   0.11690 
H          H      -0.12540   0.36990   0.11690 
H          H       0.12540   0.63010   0.11690 
H          H      -0.13010   0.62540   0.61690 
H          H       0.13010   0.37460   0.61690 
H          H       0.37460  -0.13010   0.61690 
H          H       0.62540   0.13010   0.61690 
H          H       0.63010  -0.12540   0.88310 
H          H       0.36990   0.12540   0.88310 
H          H       0.12540   0.63010   0.88310 
H          H      -0.12540   0.36990   0.88310 
H          H       0.13010   0.37460   0.38310 
H          H      -0.13010   0.62540   0.38310 
H          H       0.62540   0.13010   0.38310 
H          H       0.37460  -0.13010   0.38310 
C          C       0.20280   0.05350   0.11455 
C          C       0.79720  -0.05350   0.11455 
C          C      -0.05350   0.20280   0.11455 
C          C       0.05350   0.79720   0.11455 
C          C      -0.29720   0.55350   0.61455 
C          C       0.29720   0.44650   0.61455 
C          C       0.44650  -0.29720   0.61455 
C          C       0.55350   0.29720   0.61455 
C          C       0.79720  -0.05350   0.88545 
C          C       0.20280   0.05350   0.88545 
C          C       0.05350   0.79720   0.88545 
C          C      -0.05350   0.20280   0.88545 
C          C       0.29720   0.44650   0.38545 
C          C      -0.29720   0.55350   0.38545 
C          C       0.55350   0.29720   0.38545 
C          C       0.44650  -0.29720   0.38545 
O          O       0.08920   0.95450   0.03700 
O          O       0.04550   0.08920   0.03700 
O          O       0.41080   0.54550   0.53700 
O          O       0.58920   0.45450   0.53700 
O          O       0.45450   0.41080   0.53700 
O          O       0.54550   0.58920   0.53700 
O          O       0.04550   0.08920   0.96300 
O          O       0.58920   0.45450   0.46300 
O          O       0.41080   0.54550   0.46300 
O          O       0.54550   0.58920   0.46300 
O          O       0.45450   0.41080   0.46300 
Zr         Zr     -0.16211  -0.05358   0.00000 
O          O      -0.22570  -0.18850   0.00000 
O          O      -0.04550  -0.08920   0.03700 
Zr         Zr     -0.05358   0.16211   0.00000 
O          O      -0.18850   0.22570   0.00000 
O          O      -0.08920   0.04550   0.03700 
O          O       0.29310  -0.02100   0.00000 
O          O      -0.02100   0.70690   0.00000 
O          O       0.08920  -0.04550   0.96300 
O          O      -0.08920   0.04550   0.96300 
O          O      -0.04550  -0.08920   0.96300 
O          O      -0.29310   0.02100   0.00000 
O          O       0.02100   0.29310   0.00000 
H          H       0.28138  -0.08716  -0.00416 
H          H       0.33176   0.00131  -0.02665 
H          H      -0.28138   0.08716  -0.00416 
H          H      -0.33176  -0.00131  -0.02665 
H          H       0.08716   0.28138  -0.00416 
H          H      -0.00131   0.33176  -0.02665 
H          H      -0.00444   0.67152   0.02895 
H          H      -0.08759   0.71886   0.00000 
H          H       0.78138   0.41284   0.49584 
H          H       0.83176   0.50131   0.47335 
H          H       0.21862   0.58716   0.49584 
H          H       0.16825   0.49869   0.47335 
H          H       0.58716   0.78138   0.49584 
H          H       0.49869   0.83176   0.47335 
H          H       0.41284   0.21862   0.49584 
H          H       0.50131   0.16825   0.47335 
H          H       0.25833   0.19805   0.03066 
H          H       0.26963   0.19273  -0.02688 
H          H      -0.25833  -0.19805   0.03066 
H          H      -0.26963  -0.19273  -0.02688 
H          H      -0.19805   0.25833   0.03066 
H          H      -0.19273   0.26963  -0.02688 
H          H       0.18214   0.70791   0.00598 
H          H       0.21807   0.78413  -0.03148 
H          H       0.75833   0.69805   0.53066 
H          H       0.76963   0.69273   0.47312 
H          H       0.24167   0.30195   0.53066 
H          H       0.23037   0.30727   0.47312 
H          H       0.30195   0.75833   0.53066 
H          H       0.30727   0.76963   0.47312 
H          H       0.69805   0.24167   0.53066 
H          H       0.69273   0.23037   0.47312 
