
#######################################################################
#
#                 Cambridge Crystallographic Data Centre
#                                CCDC 
#
#######################################################################
#
# If this CIF has been generated from an entry in the Cambridge 
# Structural Database, then it will include bibliographic, chemical, 
# crystal, experimental, refinement or atomic coordinate data resulting 
# from the CCDC's data processing and validation procedures.
#
#######################################################################

data_mof210
_symmetry_cell_setting           rhombohedral
_symmetry_space_group_name_H-M   'R -3'
_symmetry_Int_Tables_number      148
_space_group_name_Hall           '-R 3'
loop_
_symmetry_equiv_pos_site_id
_symmetry_equiv_pos_as_xyz
1 x,y,z
2 -y,x-y,z
3 -x+y,-x,z
4 2/3+x,1/3+y,1/3+z
5 2/3-y,1/3+x-y,1/3+z
6 2/3-x+y,1/3-x,1/3+z
7 1/3+x,2/3+y,2/3+z
8 1/3-y,2/3+x-y,2/3+z
9 1/3-x+y,2/3-x,2/3+z
10 -x,-y,-z
11 y,-x+y,-z
12 x-y,x,-z
13 2/3-x,1/3-y,1/3-z
14 2/3+y,1/3-x+y,1/3-z
15 2/3+x-y,1/3+x,1/3-z
16 1/3-x,2/3-y,2/3-z
17 1/3+y,2/3-x+y,2/3-z
18 1/3+x-y,2/3+x,2/3-z
_cell_length_a                   50.745(1)
_cell_length_b                   50.745(1)
_cell_length_c                   194.256(5)
_cell_angle_alpha                90.00
_cell_angle_beta                 90.00
_cell_angle_gamma                120.00
_cell_volume                     433203
loop_
_atom_site_label
_atom_site_type_symbol
_atom_site_fract_x
_atom_site_fract_y
_atom_site_fract_z
Zn1 Zn 0.722(3) 0.592(3) 0.1963(7)
Zn2 Zn 0.692(3) 0.623(3) 0.1877(5)
Zn3 Zn 0.695(3) 0.628(3) 0.2039(5)
Zn4 Zn 0.651(2) 0.565(3) 0.1969(6)
Zn5 Zn 0.699(3) 0.588(3) 0.0814(8)
Zn6 Zn 0.658(3) 0.610(3) 0.0760(6)
Zn7 Zn 0.633(3) 0.555(3) 0.0853(7)
Zn8 Zn 0.675(3) 0.617(3) 0.0910(6)
Zn9 Zn 0.623(3) 0.693(3) 0.3120(5)
Zn10 Zn 0.593(3) 0.721(3) 0.3036(7)
Zn11 Zn 0.567(2) 0.652(2) 0.3033(6)
Zn12 Zn 0.628(3) 0.695(3) 0.2964(5)
O1A O 0.6901(16) 0.6018(17) 0.1962(3)
O1B O 0.6662(16) 0.5925(18) 0.0834(4)
O1C O 0.6029(17) 0.6903(16) 0.3038(3)
O1 O 0.747(3) 0.610(4) 0.2036(10)
O2 O 0.629(3) 0.561(3) 0.1894(10)
O3 O 0.659(5) 0.602(4) 0.1830(7)
O4 O 0.730(4) 0.637(3) 0.2088(7)
O5 O 0.632(3) 0.566(3) 0.2044(10)
O6 O 0.745(3) 0.606(3) 0.1887(10)
O7 O 0.707(5) 0.552(5) 0.1969(7)
O8 O 0.656(4) 0.533(3) 0.1974(7)
O9 O 0.325(4) 0.296(4) 0.1438(9)
O10 O 0.648(4) 0.600(4) 0.0974(7)
O11 O 0.618(3) 0.554(4) 0.0934(9)
O12 O 0.318(4) 0.310(4) 0.2447(8)
O13 O 0.311(4) 0.318(4) 0.2556(9)
O14 O 0.955(4) 0.705(3) 0.2389(7)
O15 O 0.936(3) 0.726(3) 0.2459(9)
O18 O 0.993(5) 0.724(3) 0.3496(7)
O19 O 0.963(3) 0.734(3) 0.3558(10)
O20 O 0.534(3) 0.656(4) 0.3026(7)
O21 O 0.329(4) 0.298(3) 0.1324(10)
O22 O 0.664(5) 0.610(4) 0.2094(8)
O23 O 0.567(3) 0.631(3) 0.2960(10)
O24 O 0.611(4) 0.663(5) 0.2908(7)
O25 O 0.663(4) 0.699(3) 0.2991(10)
O26 O 0.983(4) 0.715(3) 0.2644(7)
O27 O 0.952(3) 0.731(3) 0.2605(9)
O28 O 0.659(4) 0.697(3) 0.3105(9)
O31 O 0.553(5) 0.706(5) 0.3031(7)
O34 O 0.724(4) 0.629(3) 0.1828(7)
C1 C 0.749(7) 0.628(6) 0.2083(15)
C2 C 0.745(7) 0.622(6) 0.1836(16)
C3 C 0.680(9) 0.530(8) 0.1974(10)
C4 C 0.609(6) 0.566(7) 0.1047(16)
C5 C 0.327(7) 0.326(7) 0.2501(18)
C6 C 0.934(7) 0.710(5) 0.2405(15)
C7 C 0.674(7) 0.698(4) 0.305(2)
C8 C 0.968(8) 0.723(5) 0.3504(16)
C9 C 0.530(8) 0.679(9) 0.3026(10)
C10 C 0.634(8) 0.577(8) 0.1839(16)
C11 C 0.611(6) 0.568(7) 0.1784(15)
C12 C 0.570(4) 0.528(5) 0.1718(13)
H12A H 0.5543 0.5074 0.1712
C13 C 0.588(5) 0.537(6) 0.1776(11)
H13A H 0.5855 0.5226 0.1811
C14 C 0.532(7) 0.521(7) 0.1482(15)
C15 C 0.547(5) 0.536(5) 0.1422(16)
H15A H 0.5659 0.5547 0.1424
C16 C 0.535(7) 0.523(6) 0.1357(16)
C17 C 0.507(6) 0.496(6) 0.1354(13)
H17A H 0.4989 0.4870 0.1310
C18 C 0.492(6) 0.481(6) 0.1414(17)
C19 C 0.504(6) 0.494(6) 0.1478(13)
H19A H 0.4939 0.4836 0.1519
C20 C 0.420(6) 0.396(6) 0.1400(16)
C21 C 0.405(5) 0.380(5) 0.1460(12)
H21A H 0.4128 0.3882 0.1504
C22 C 0.380(5) 0.351(5) 0.1454(12)
H22A H 0.3699 0.3396 0.1495
C23 C 0.368(6) 0.338(6) 0.1389(16)
C24 C 0.384(5) 0.354(5) 0.1330(12)
H24A H 0.3764 0.3454 0.1285
C25 C 0.409(5) 0.383(5) 0.1335(12)
H25A H 0.4193 0.3941 0.1295
C26 C 0.339(7) 0.309(7) 0.138(2)
C27 C 0.579(6) 0.552(7) 0.1174(15)
C28 C 0.618(4) 0.588(5) 0.1099(13)
H28A H 0.6340 0.6083 0.1091
C29 C 0.603(5) 0.581(5) 0.1162(12)
H29A H 0.6089 0.5963 0.1197
C30 C 0.613(4) 0.589(5) 0.1735(13)
H30A H 0.6280 0.6102 0.1742
C31 C 0.595(5) 0.580(6) 0.1677(12)
H31A H 0.5967 0.5949 0.1644
C32 C 0.573(5) 0.550(7) 0.1668(15)
C33 C 0.551(5) 0.536(5) 0.1295(14)
C34 C 0.564(5) 0.544(5) 0.1240(15)
C35 C 0.445(6) 0.426(6) 0.1406(10)
C36 C 0.466(6) 0.451(6) 0.1410(10)
C37 C 0.558(5) 0.540(5) 0.1603(15)
C38 C 0.546(5) 0.532(5) 0.1548(14)
C39 C 0.569(4) 0.530(5) 0.1123(13)
H39A H 0.5524 0.5099 0.1131
C40 C 0.584(5) 0.537(5) 0.1059(12)
H40A H 0.5775 0.5217 0.1024
C41 C 0.639(7) 0.585(8) 0.2093(16)
C42 C 0.618(6) 0.577(7) 0.2151(15)
C43 C 0.573(4) 0.539(5) 0.2212(14)
H43A H 0.5548 0.5199 0.2213
C44 C 0.591(5) 0.549(5) 0.2153(11)
H44A H 0.5846 0.5358 0.2114
C45 C 0.539(7) 0.522(7) 0.2451(16)
C46 C 0.552(5) 0.537(5) 0.2513(16)
H46A H 0.5705 0.5558 0.2513
C47 C 0.537(7) 0.524(7) 0.2575(16)
C48 C 0.510(6) 0.496(6) 0.2574(13)
H48A H 0.4998 0.4869 0.2616
C49 C 0.497(6) 0.482(6) 0.2512(17)
C50 C 0.512(6) 0.495(6) 0.2450(13)
H50A H 0.5035 0.4847 0.2407
C51 C 0.415(6) 0.405(6) 0.2507(16)
C52 C 0.404(5) 0.389(5) 0.2446(12)
H52A H 0.4169 0.3949 0.2406
C53 C 0.375(6) 0.363(5) 0.2444(12)
H53A H 0.3684 0.3515 0.2402
C54 C 0.357(7) 0.354(6) 0.2502(16)
C55 C 0.367(5) 0.371(5) 0.2563(12)
H55A H 0.3549 0.3650 0.2603
C56 C 0.396(6) 0.397(5) 0.2565(12)
H56A H 0.4034 0.4083 0.2606
C57 C 0.566(7) 0.573(6) 0.2749(14)
C58 C 0.601(5) 0.621(5) 0.2803(13)
H58A H 0.6199 0.6394 0.2804
C59 C 0.594(5) 0.600(6) 0.2750(11)
H59A H 0.6078 0.6048 0.2713
C60 C 0.626(5) 0.596(5) 0.2209(13)
H60A H 0.6431 0.6161 0.2207
C61 C 0.608(5) 0.587(5) 0.2268(11)
H61A H 0.6132 0.6000 0.2307
C62 C 0.582(6) 0.558(7) 0.2270(15)
C63 C 0.548(5) 0.540(5) 0.2638(14)
C64 C 0.557(5) 0.555(5) 0.2690(14)
C65 C 0.444(7) 0.432(6) 0.2509(10)
C66 C 0.469(7) 0.454(6) 0.2510(10)
C67 C 0.566(5) 0.546(5) 0.2334(14)
C68 C 0.554(5) 0.536(5) 0.2387(14)
C69 C 0.545(5) 0.566(5) 0.2803(13)
H69A H 0.5265 0.5477 0.2804
C70 C 0.552(5) 0.587(6) 0.2858(11)
H70A H 0.5384 0.5822 0.2895
C71 C 0.580(6) 0.615(7) 0.2857(15)
C72 C 0.586(8) 0.637(7) 0.2912(15)
C73 C 0.960(7) 0.719(5) 0.2652(17)
C74 C 0.943(6) 0.709(5) 0.2717(16)
C75 C 0.902(4) 0.704(4) 0.2791(13)
H75A H 0.8849 0.7066 0.2799
C76 C 0.917(5) 0.713(4) 0.2729(12)
H76A H 0.9107 0.7210 0.2693
C77 C 0.867(6) 0.676(4) 0.3025(16)
C78 C 0.879(5) 0.675(4) 0.3089(16)
H78A H 0.8977 0.6748 0.3092
C79 C 0.864(7) 0.676(4) 0.3150(15)
C80 C 0.837(6) 0.676(4) 0.3146(13)
H80A H 0.8268 0.6762 0.3187
C81 C 0.825(6) 0.677(4) 0.3082(17)
C82 C 0.840(6) 0.677(4) 0.3021(13)
H82A H 0.8316 0.6771 0.2978
C83 C 0.754(6) 0.691(4) 0.3067(16)
C84 C 0.743(5) 0.693(4) 0.3002(12)
H84A H 0.7531 0.6923 0.2961
C85 C 0.718(5) 0.697(4) 0.2996(12)
H85A H 0.7104 0.6984 0.2952
C86 C 0.703(6) 0.699(4) 0.3056(16)
C87 C 0.714(5) 0.698(4) 0.3121(12)
H87A H 0.7048 0.6995 0.3161
C88 C 0.740(5) 0.694(4) 0.3126(12)
H88A H 0.7475 0.6935 0.3170
C89 C 0.907(6) 0.690(5) 0.3334(15)
C90 C 0.949(4) 0.692(4) 0.3398(13)
H90A H 0.9644 0.6868 0.3403
C91 C 0.930(5) 0.682(4) 0.3341(11)
H91A H 0.9323 0.6699 0.3307
C92 C 0.952(4) 0.696(4) 0.2769(13)
H92A H 0.9689 0.6932 0.2762
C93 C 0.937(5) 0.688(4) 0.2832(12)
H93A H 0.9430 0.6790 0.2867
C94 C 0.912(6) 0.692(4) 0.2843(15)
C95 C 0.878(5) 0.679(4) 0.3215(14)
C96 C 0.891(5) 0.683(4) 0.3270(15)
C97 C 0.779(6) 0.686(4) 0.3073(10)
C98 C 0.800(6) 0.682(4) 0.3077(11)
C99 C 0.897(5) 0.685(4) 0.2909(15)
C100 C 0.884(5) 0.680(4) 0.2963(14)
C101 C 0.903(4) 0.706(4) 0.3385(13)
H10A H 0.8866 0.7108 0.3381
C102 C 0.922(5) 0.716(4) 0.3443(11)
H10B H 0.9185 0.7274 0.3478
C103 C 0.946(6) 0.710(5) 0.3449(15)
C115 C 0.676(7) 0.499(7) 0.1980(9)
C116 C 0.698(5) 0.467(6) 0.1989(8)
H11C H 0.7157 0.4646 0.1990
C117 C 0.702(5) 0.496(5) 0.1981(8)
H11D H 0.7213 0.5129 0.1976
C118 C 0.666(11) 0.361(8) 0.2014(10)
C119 C 0.639(7) 0.333(10) 0.2014(8)
H11E H 0.6199 0.3324 0.2014
C120 C 0.647(5) 0.474(6) 0.1987(8)
H12B H 0.6292 0.4757 0.1986
C121 C 0.669(7) 0.442(7) 0.1996(9)
C122 C 0.643(5) 0.445(5) 0.1995(8)
H12C H 0.6237 0.4273 0.1999
C123 C 0.666(5) 0.388(6) 0.2010(9)
C124 C 0.667(4) 0.412(7) 0.2004(9)
C125 C 0.360(8) 0.666(11) 0.2997(9)
C126 C 0.361(7) 0.694(7) 0.2997(8)
H12D H 0.3803 0.7122 0.2996
C127 C 0.441(7) 0.669(7) 0.3008(9)
C128 C 0.467(6) 0.698(5) 0.3012(8)
H12E H 0.4648 0.7150 0.3011
C129 C 0.496(5) 0.701(5) 0.3018(8)
H12F H 0.5132 0.7207 0.3021
C130 C 0.500(7) 0.675(7) 0.3020(9)
C131 C 0.474(6) 0.646(5) 0.3016(8)
H13B H 0.4759 0.6285 0.3017
C132 C 0.445(5) 0.643(5) 0.3010(8)
H13C H 0.4272 0.6230 0.3007
C133 C 0.388(6) 0.665(5) 0.2999(9)
C134 C 0.412(7) 0.666(5) 0.3003(9)
C135 C 0.819(5) 0.637(5) 0.2182(11)
H13D H 0.8306 0.6279 0.2183
C136 C 0.794(5) 0.627(4) 0.2136(10)
H13E H 0.7894 0.6099 0.2107
C137 C 0.775(6) 0.640(6) 0.2134(13)
C138 C 0.782(5) 0.664(5) 0.2178(11)
H13F H 0.7696 0.6733 0.2178
C139 C 0.807(5) 0.675(4) 0.2224(10)
H13G H 0.8114 0.6920 0.2253
C140 C 0.826(6) 0.662(6) 0.2226(13)
C141 C 0.880(6) 0.673(4) 0.2253(11)
H14A H 0.8800 0.6647 0.2210
C142 C 0.854(7) 0.675(5) 0.2272(15)
C143 C 0.854(5) 0.688(4) 0.2337(13)
H14B H 0.8372 0.6894 0.2351
C144 C 0.880(6) 0.699(4) 0.2380(11)
H14C H 0.8801 0.7084 0.2423
C145 C 0.906(7) 0.698(5) 0.2360(15)
C146 C 0.905(5) 0.684(4) 0.2296(13)
H14D H 0.9224 0.6830 0.2282
C160 C 0.819(5) 0.642(5) 0.1748(13)
H16A H 0.8359 0.6384 0.1755
C161 C 0.795(6) 0.629(4) 0.1794(11)
H16B H 0.7948 0.6170 0.1831
C162 C 0.770(7) 0.633(5) 0.1784(15)
C163 C 0.770(5) 0.650(5) 0.1727(13)
H16C H 0.7525 0.6525 0.1719
C164 C 0.794(6) 0.663(4) 0.1681(10)
H16D H 0.7933 0.6738 0.1643
C165 C 0.820(5) 0.659(5) 0.1691(13)
C173 C 0.626(7) 0.573(9) 0.0981(17)
O6 O 0.922(3) 0.727(3) 0.1446(10)
O34 O 0.943(4) 0.704(3) 0.1505(7)
C2 C 0.922(7) 0.711(6) 0.1497(16)
C160 C 0.848(5) 0.691(5) 0.1585(13)
H16A H 0.8308 0.6949 0.1578
C161 C 0.872(6) 0.704(4) 0.1539(11)
H16B H 0.8719 0.7163 0.1502
C162 C 0.897(7) 0.700(5) 0.1549(15)
C163 C 0.897(5) 0.683(5) 0.1606(13)
H16C H 0.9142 0.6808 0.1614
C164 C 0.873(6) 0.670(4) 0.1652(10)
H16D H 0.8734 0.6595 0.1690
C165 C 0.847(5) 0.674(5) 0.1642(13)
O7 O 0.448(5) 0.155(7) 0.1969(7)
O8 O 0.467(3) 0.123(5) 0.1974(7)
C3 C 0.470(8) 0.150(12) 0.1974(10)
C115 C 0.501(7) 0.177(10) 0.1980(9)
C116 C 0.533(6) 0.231(8) 0.1989(8)
H11C H 0.5354 0.2511 0.1990
C117 C 0.504(5) 0.206(7) 0.1981(8)
H11D H 0.4871 0.2084 0.1976
C118 C 0.639(8) 0.305(14) 0.2014(10)
C119 C 0.667(10) 0.306(12) 0.2014(8)
H11E H 0.6676 0.2875 0.2014
C120 C 0.526(6) 0.173(8) 0.1987(8)
H12B H 0.5243 0.1535 0.1986
C121 C 0.558(7) 0.227(10) 0.1996(9)
C122 C 0.555(5) 0.198(7) 0.1995(8)
H12C H 0.5727 0.1964 0.1999
C123 C 0.612(6) 0.278(8) 0.2010(9)
C124 C 0.588(7) 0.255(8) 0.2004(9)
O7 O 0.845(7) 0.293(5) 0.1969(7)
O8 O 0.877(5) 0.344(4) 0.1974(7)
C3 C 0.850(12) 0.320(9) 0.1974(10)
C115 C 0.823(10) 0.324(7) 0.1980(9)
C116 C 0.769(8) 0.302(5) 0.1989(8)
H11C H 0.7489 0.2843 0.1990
C117 C 0.794(7) 0.298(5) 0.1981(8)
H11D H 0.7916 0.2787 0.1976
C118 C 0.695(14) 0.334(11) 0.2014(10)
C119 C 0.694(12) 0.361(7) 0.2014(8)
H11E H 0.7125 0.3801 0.2014
C120 C 0.827(8) 0.353(5) 0.1987(8)
H12B H 0.8465 0.3708 0.1986
C121 C 0.773(10) 0.331(7) 0.1996(9)
C122 C 0.802(7) 0.357(5) 0.1995(8)
H12C H 0.8036 0.3763 0.1999
C123 C 0.722(8) 0.334(5) 0.2010(9)
C124 C 0.745(8) 0.333(4) 0.2004(9)
O20 O 0.344(4) 0.878(5) 0.3026(7)
O31 O 0.294(5) 0.847(7) 0.3031(7)
C9 C 0.321(9) 0.851(12) 0.3026(10)
C125 C 0.334(11) 0.694(14) 0.2997(9)
C126 C 0.306(7) 0.667(10) 0.2997(8)
H12D H 0.2878 0.6681 0.2996
C127 C 0.331(7) 0.772(10) 0.3008(9)
C128 C 0.302(5) 0.769(8) 0.3012(8)
H12E H 0.2850 0.7498 0.3011
C129 C 0.299(5) 0.795(7) 0.3018(8)
H12F H 0.2793 0.7925 0.3021
C130 C 0.325(7) 0.825(10) 0.3020(9)
C131 C 0.354(5) 0.828(8) 0.3016(8)
H13B H 0.3715 0.8474 0.3017
C132 C 0.357(5) 0.802(7) 0.3010(8)
H13C H 0.3770 0.8042 0.3007
C133 C 0.335(5) 0.723(8) 0.2999(9)
C134 C 0.334(5) 0.746(9) 0.3003(9)
O20 O 0.122(5) 0.466(3) 0.3026(7)
O31 O 0.153(7) 0.447(5) 0.3031(7)
C9 C 0.149(12) 0.470(8) 0.3026(10)
C125 C 0.306(14) 0.640(8) 0.2997(9)
C126 C 0.333(10) 0.639(7) 0.2997(8)
H12D H 0.3319 0.6197 0.2996
C127 C 0.228(10) 0.559(7) 0.3008(9)
C128 C 0.231(8) 0.533(6) 0.3012(8)
H12E H 0.2502 0.5352 0.3011
C129 C 0.205(7) 0.504(5) 0.3018(8)
H12F H 0.2075 0.4868 0.3021
C130 C 0.175(10) 0.500(7) 0.3020(9)
C131 C 0.172(8) 0.526(6) 0.3016(8)
H13B H 0.1526 0.5241 0.3017
C132 C 0.198(7) 0.555(5) 0.3010(8)
H13C H 0.1958 0.5728 0.3007
C133 C 0.277(8) 0.612(6) 0.2999(9)
C134 C 0.254(9) 0.588(7) 0.3003(9)
O29 O 0.691(4) 0.549(5) 0.0814(6)
O30 O 0.642(4) 0.525(3) 0.0846(6)
C104 C 0.667(7) 0.496(7) 0.0829(10)
C105 C 0.693(5) 0.467(6) 0.0810(9)
H10C H 0.7106 0.4674 0.0798
C106 C 0.693(5) 0.495(5) 0.0810(8)
H10D H 0.7107 0.5136 0.0799
C107 C 0.667(11) 0.360(8) 0.0825(10)
C108 C 0.639(7) 0.333(10) 0.0825(8)
H10E H 0.6203 0.3330 0.0825
C109 C 0.667(7) 0.440(7) 0.0827(10)
C110 C 0.640(5) 0.468(6) 0.0846(8)
H11A H 0.6217 0.4689 0.0858
C111 C 0.640(5) 0.441(5) 0.0845(9)
H11B H 0.6218 0.4227 0.0856
C112 C 0.667(5) 0.389(7) 0.0826(9)
C113 C 0.667(4) 0.412(7) 0.0826(9)
C114 C 0.667(8) 0.525(8) 0.0830(11)
O29 O 0.451(5) 0.141(6) 0.0814(6)
O30 O 0.475(3) 0.116(5) 0.0846(6)
C104 C 0.504(7) 0.170(10) 0.0829(10)
C105 C 0.533(6) 0.225(8) 0.0810(9)
H10C H 0.5326 0.2431 0.0798
C106 C 0.505(5) 0.197(7) 0.0810(8)
H10D H 0.4864 0.1970 0.0799
C107 C 0.640(8) 0.306(14) 0.0825(10)
C108 C 0.667(10) 0.305(12) 0.0825(8)
H10E H 0.6670 0.2872 0.0825
C109 C 0.560(7) 0.226(10) 0.0827(10)
C110 C 0.532(6) 0.171(8) 0.0846(8)
H11A H 0.5311 0.1527 0.0858
C111 C 0.559(5) 0.198(7) 0.0845(9)
H11B H 0.5773 0.1990 0.0856
C112 C 0.611(7) 0.277(9) 0.0826(9)
C113 C 0.588(7) 0.254(8) 0.0826(9)
C114 C 0.475(8) 0.141(11) 0.0830(11)
O29 O 0.859(6) 0.309(4) 0.0814(6)
O30 O 0.884(5) 0.358(4) 0.0846(6)
C104 C 0.830(10) 0.333(7) 0.0829(10)
C105 C 0.775(8) 0.307(5) 0.0810(9)
H10C H 0.7569 0.2894 0.0798
C106 C 0.803(7) 0.307(5) 0.0810(8)
H10D H 0.8030 0.2893 0.0799
C107 C 0.694(14) 0.333(11) 0.0825(10)
C108 C 0.695(12) 0.361(7) 0.0825(8)
H10E H 0.7128 0.3797 0.0825
C109 C 0.774(10) 0.333(7) 0.0827(10)
C110 C 0.829(8) 0.360(5) 0.0846(8)
H11A H 0.8473 0.3783 0.0858
C111 C 0.802(7) 0.360(5) 0.0845(9)
H11B H 0.8010 0.3782 0.0856
C112 C 0.723(9) 0.333(5) 0.0826(9)
C113 C 0.746(8) 0.333(4) 0.0826(9)
C114 C 0.859(11) 0.333(8) 0.0830(11)
O16 O 0.621(5) 0.584(4) 0.0720(7)
O17 O 0.603(4) 0.544(3) 0.0789(9)
O32 O 0.414(5) 0.470(3) 0.0370(10)
O33 O 0.396(5) 0.425(4) 0.0422(7)
C147 C 0.571(6) 0.555(5) 0.0629(13)
H14E H 0.5874 0.5739 0.0614
C148 C 0.572(8) 0.542(6) 0.0692(15)
C149 C 0.547(6) 0.515(5) 0.0712(11)
H14F H 0.5464 0.5060 0.0755
C150 C 0.520(6) 0.500(4) 0.0670(13)
H15B H 0.5032 0.4819 0.0685
C151 C 0.520(8) 0.513(6) 0.0606(15)
C152 C 0.483(7) 0.514(5) 0.0517(11)
H15C H 0.4949 0.5362 0.0518
C153 C 0.492(9) 0.497(7) 0.0560(13)
C154 C 0.473(7) 0.465(6) 0.0557(10)
H15D H 0.4778 0.4533 0.0586
C155 C 0.448(7) 0.451(5) 0.0512(11)
H15E H 0.4359 0.4297 0.0512
C156 C 0.441(9) 0.468(7) 0.0468(13)
C157 C 0.459(7) 0.500(6) 0.0471(10)
H15F H 0.4537 0.5126 0.0443
C158 C 0.416(10) 0.454(8) 0.0417(15)
C159 C 0.600(9) 0.558(7) 0.0736(15)
C174 C 0.545(6) 0.540(5) 0.0586(11)
H17C H 0.5447 0.5494 0.0543
O35 O 0.607(4) 0.746(3) 0.3112(10)
O36 O 0.629(6) 0.725(4) 0.3171(7)
C166 C 0.662(8) 0.794(6) 0.3319(10)
H16E H 0.6730 0.7929 0.3358
C167 C 0.649(7) 0.770(5) 0.3273(13)
H16F H 0.6519 0.7524 0.3281
C168 C 0.633(10) 0.770(7) 0.3215(15)
C169 C 0.628(8) 0.795(6) 0.3205(11)
H16G H 0.6178 0.7956 0.3167
C170 C 0.642(7) 0.820(5) 0.3252(13)
H17B H 0.6390 0.8365 0.3244
C171 C 0.659(9) 0.820(5) 0.3309(13)
C172 C 0.622(11) 0.746(7) 0.3164(16)
O35 O 0.726(4) 0.921(3) 0.3555(10)
O36 O 0.704(6) 0.942(4) 0.3496(7)
C166 C 0.671(8) 0.873(6) 0.3348(10)
H16E H 0.6603 0.8738 0.3309
C167 C 0.684(7) 0.897(5) 0.3394(13)
H16F H 0.6814 0.9143 0.3386
C168 C 0.700(10) 0.897(7) 0.3452(15)
C169 C 0.705(8) 0.872(6) 0.3462(11)
H16G H 0.7155 0.8711 0.3500
C170 C 0.691(7) 0.847(5) 0.3415(13)
H17B H 0.6943 0.8302 0.3423
C171 C 0.674(9) 0.847(5) 0.3358(13)
C172 C 0.711(11) 0.921(7) 0.3503(16)
Zn1 Zn 0.408(3) 0.130(4) 0.1963(7)
Zn2 Zn 0.377(3) 0.069(4) 0.1877(5)
Zn3 Zn 0.372(3) 0.067(4) 0.2039(5)
Zn4 Zn 0.435(3) 0.086(4) 0.1969(6)
Zn5 Zn 0.412(3) 0.111(4) 0.0814(8)
Zn6 Zn 0.390(3) 0.048(4) 0.0760(6)
Zn7 Zn 0.445(3) 0.078(4) 0.0853(7)
Zn8 Zn 0.383(3) 0.058(4) 0.0910(6)
Zn9 Zn 0.307(3) -0.070(4) 0.3120(5)
Zn10 Zn 0.279(3) -0.128(4) 0.3036(7)
Zn11 Zn 0.348(2) -0.085(3) 0.3033(6)
Zn12 Zn 0.305(3) -0.067(4) 0.2964(5)
O1A O 0.3982(17) 0.0883(23) 0.1962(3)
O1B O 0.4075(18) 0.0737(24) 0.0834(4)
O1C O 0.3097(16) -0.0874(23) 0.3038(3)
O1 O 0.390(4) 0.137(5) 0.2036(10)
O2 O 0.439(3) 0.068(4) 0.1894(10)
O3 O 0.398(4) 0.057(6) 0.1830(7)
O4 O 0.363(3) 0.093(5) 0.2088(7)
O5 O 0.434(3) 0.066(4) 0.2044(10)
O6 O 0.394(3) 0.139(4) 0.1887(10)
O9 O 0.704(4) 0.029(6) 0.1438(9)
O10 O 0.400(4) 0.048(6) 0.0974(7)
O11 O 0.446(4) 0.064(5) 0.0934(9)
O12 O 0.690(4) 0.008(6) 0.2447(8)
O13 O 0.682(4) -0.007(6) 0.2556(9)
O14 O 0.295(3) 0.250(5) 0.2389(7)
O15 O 0.274(3) 0.210(4) 0.2459(9)
O18 O 0.276(3) 0.269(6) 0.3496(7)
O19 O 0.266(3) 0.229(4) 0.3558(10)
O21 O 0.702(3) 0.031(5) 0.1324(10)
O22 O 0.390(4) 0.054(6) 0.2094(8)
O23 O 0.369(3) -0.064(4) 0.2960(10)
O24 O 0.337(5) -0.052(6) 0.2908(7)
O25 O 0.301(3) -0.036(5) 0.2991(10)
O26 O 0.285(3) 0.268(5) 0.2644(7)
O27 O 0.269(3) 0.221(4) 0.2605(9)
O28 O 0.303(3) -0.038(5) 0.3105(9)
O34 O 0.371(3) 0.095(5) 0.1828(7)
C1 C 0.372(6) 0.121(9) 0.2083(15)
C2 C 0.378(6) 0.123(9) 0.1836(16)
C4 C 0.434(7) 0.043(9) 0.1047(16)
C5 C 0.674(7) 0.001(10) 0.2501(18)
C6 C 0.290(5) 0.224(9) 0.2405(15)
C7 C 0.302(4) -0.024(8) 0.305(2)
C8 C 0.277(5) 0.245(9) 0.3504(16)
C10 C 0.423(8) 0.057(11) 0.1839(16)
C11 C 0.432(7) 0.043(9) 0.1784(15)
C12 C 0.472(5) 0.042(6) 0.1718(13)
H12A H 0.4926 0.0469 0.1712
C13 C 0.463(6) 0.051(8) 0.1776(11)
H13A H 0.4774 0.0629 0.1811
C14 C 0.479(7) 0.011(10) 0.1482(15)
C15 C 0.464(5) 0.011(7) 0.1422(16)
H15A H 0.4453 0.0112 0.1424
C16 C 0.477(6) 0.012(9) 0.1357(16)
C17 C 0.504(6) 0.011(8) 0.1354(13)
H17A H 0.5130 0.0119 0.1310
C18 C 0.519(6) 0.011(8) 0.1414(17)
C19 C 0.506(6) 0.010(8) 0.1478(13)
H19A H 0.5164 0.0103 0.1519
C20 C 0.604(6) 0.024(8) 0.1400(16)
C21 C 0.620(5) 0.025(7) 0.1460(12)
H21A H 0.6118 0.0246 0.1504
C22 C 0.649(5) 0.029(7) 0.1454(12)
H22A H 0.6604 0.0303 0.1495
C23 C 0.662(6) 0.030(8) 0.1389(16)
C24 C 0.646(5) 0.030(7) 0.1330(12)
H24A H 0.6546 0.0310 0.1285
C25 C 0.617(5) 0.026(7) 0.1335(12)
H25A H 0.6059 0.0252 0.1295
C26 C 0.691(7) 0.030(10) 0.138(2)
C27 C 0.448(7) 0.027(9) 0.1174(15)
C28 C 0.412(5) 0.030(6) 0.1099(13)
H28A H 0.3917 0.0257 0.1091
C29 C 0.419(5) 0.022(7) 0.1162(12)
H29A H 0.4037 0.0126 0.1197
C30 C 0.411(5) 0.024(6) 0.1735(13)
H30A H 0.3898 0.0178 0.1742
C31 C 0.420(6) 0.015(8) 0.1677(12)
H31A H 0.4051 0.0018 0.1644
C32 C 0.450(7) 0.023(9) 0.1668(15)
C33 C 0.464(5) 0.015(7) 0.1295(14)
C34 C 0.456(5) 0.020(7) 0.1240(15)
C35 C 0.574(6) 0.019(8) 0.1406(10)
C36 C 0.549(6) 0.015(8) 0.1410(10)
C37 C 0.460(5) 0.018(7) 0.1603(15)
C38 C 0.468(5) 0.014(7) 0.1548(14)
C39 C 0.470(5) 0.039(6) 0.1123(13)
H39A H 0.4901 0.0425 0.1131
C40 C 0.463(5) 0.047(7) 0.1059(12)
H40A H 0.4783 0.0558 0.1024
C41 C 0.415(8) 0.054(11) 0.2093(16)
C42 C 0.423(7) 0.041(9) 0.2151(15)
C43 C 0.461(5) 0.034(6) 0.2212(14)
H43A H 0.4801 0.0349 0.2213
C44 C 0.451(5) 0.042(7) 0.2153(11)
H44A H 0.4642 0.0488 0.2114
C45 C 0.478(7) 0.017(10) 0.2451(16)
C46 C 0.463(5) 0.015(7) 0.2513(16)
H46A H 0.4442 0.0147 0.2513
C47 C 0.476(7) 0.013(10) 0.2575(16)
C48 C 0.504(6) 0.014(8) 0.2574(13)
H48A H 0.5131 0.0129 0.2616
C49 C 0.518(6) 0.015(8) 0.2512(17)
C50 C 0.505(6) 0.017(8) 0.2450(13)
H50A H 0.5153 0.0188 0.2407
C51 C 0.595(6) 0.010(8) 0.2507(16)
C52 C 0.611(5) 0.015(7) 0.2446(12)
H52A H 0.6051 0.0220 0.2406
C53 C 0.637(5) 0.012(8) 0.2444(12)
H53A H 0.6485 0.0169 0.2402
C54 C 0.646(6) 0.003(9) 0.2502(16)
C55 C 0.629(5) -0.004(7) 0.2563(12)
H55A H 0.6350 -0.0101 0.2603
C56 C 0.603(5) -0.001(8) 0.2565(12)
H56A H 0.5917 -0.0049 0.2606
C57 C 0.427(6) -0.007(9) 0.2749(14)
C58 C 0.379(5) -0.020(7) 0.2803(13)
H58A H 0.3606 -0.0195 0.2804
C59 C 0.400(6) -0.006(8) 0.2750(11)
H59A H 0.3952 0.0030 0.2713
C60 C 0.404(5) 0.030(7) 0.2209(13)
H60A H 0.3839 0.0270 0.2207
C61 C 0.413(5) 0.021(7) 0.2268(11)
H61A H 0.4000 0.0132 0.2307
C62 C 0.442(7) 0.024(9) 0.2270(15)
C63 C 0.460(5) 0.008(7) 0.2638(14)
C64 C 0.445(5) 0.002(7) 0.2690(14)
C65 C 0.568(6) 0.012(9) 0.2509(10)
C66 C 0.546(6) 0.015(9) 0.2510(10)
C67 C 0.454(5) 0.020(7) 0.2334(14)
C68 C 0.464(5) 0.018(7) 0.2387(14)
C69 C 0.434(5) -0.021(7) 0.2803(13)
H69A H 0.4523 -0.0212 0.2804
C70 C 0.413(6) -0.035(8) 0.2858(11)
H70A H 0.4178 -0.0438 0.2895
C71 C 0.385(7) -0.035(9) 0.2857(15)
C72 C 0.363(7) -0.051(11) 0.2912(15)
C73 C 0.281(5) 0.241(9) 0.2652(17)
C74 C 0.291(5) 0.234(8) 0.2717(16)
C75 C 0.296(4) 0.198(6) 0.2791(13)
H75A H 0.2934 0.1783 0.2799
C76 C 0.287(4) 0.204(6) 0.2729(12)
H76A H 0.2790 0.1897 0.2693
C77 C 0.324(4) 0.191(7) 0.3025(16)
C78 C 0.325(4) 0.204(6) 0.3089(16)
H78A H 0.3252 0.2229 0.3092
C79 C 0.324(4) 0.188(8) 0.3150(15)
C80 C 0.324(4) 0.161(7) 0.3146(13)
H80A H 0.3238 0.1506 0.3187
C81 C 0.323(4) 0.148(7) 0.3082(17)
C82 C 0.323(4) 0.163(7) 0.3021(13)
H82A H 0.3229 0.1545 0.2978
C83 C 0.309(4) 0.063(7) 0.3067(16)
C84 C 0.307(4) 0.050(6) 0.3002(12)
H84A H 0.3077 0.0608 0.2961
C85 C 0.303(4) 0.021(6) 0.2996(12)
H85A H 0.3016 0.0120 0.2952
C86 C 0.301(4) 0.004(7) 0.3056(16)
C87 C 0.302(4) 0.016(6) 0.3121(12)
H87A H 0.3005 0.0053 0.3161
C88 C 0.306(4) 0.046(6) 0.3126(12)
H88A H 0.3065 0.0540 0.3170
C89 C 0.310(5) 0.217(8) 0.3334(15)
C90 C 0.308(4) 0.257(6) 0.3398(13)
H90A H 0.3132 0.2776 0.3403
C91 C 0.318(4) 0.248(6) 0.3341(11)
H91A H 0.3301 0.2624 0.3307
C92 C 0.304(4) 0.256(6) 0.2769(13)
H92A H 0.3068 0.2757 0.2762
C93 C 0.312(4) 0.249(6) 0.2832(12)
H93A H 0.3210 0.2640 0.2867
C94 C 0.308(4) 0.220(7) 0.2843(15)
C95 C 0.321(4) 0.199(6) 0.3215(14)
C96 C 0.317(4) 0.208(6) 0.3270(15)
C97 C 0.314(4) 0.093(7) 0.3073(10)
C98 C 0.318(4) 0.118(7) 0.3077(11)
C99 C 0.315(4) 0.212(6) 0.2909(15)
C100 C 0.320(4) 0.204(6) 0.2963(14)
C101 C 0.294(4) 0.197(6) 0.3385(13)
H10A H 0.2892 0.1758 0.3381
C102 C 0.284(4) 0.206(6) 0.3443(11)
H10B H 0.2726 0.1911 0.3478
C103 C 0.290(5) 0.236(8) 0.3449(15)
C135 C 0.363(5) 0.182(7) 0.2182(11)
H13D H 0.3721 0.2027 0.2183
C136 C 0.373(4) 0.167(6) 0.2136(10)
H13E H 0.3901 0.1795 0.2107
C137 C 0.360(6) 0.135(8) 0.2134(13)
C138 C 0.336(5) 0.118(7) 0.2178(11)
H13F H 0.3267 0.0963 0.2178
C139 C 0.325(4) 0.132(6) 0.2224(10)
H13G H 0.3080 0.1194 0.2253
C140 C 0.338(6) 0.164(8) 0.2226(13)
C141 C 0.327(4) 0.207(7) 0.2253(11)
H14A H 0.3353 0.2153 0.2210
C142 C 0.325(5) 0.179(9) 0.2272(15)
C143 C 0.312(4) 0.166(6) 0.2337(13)
H14B H 0.3106 0.1478 0.2351
C144 C 0.301(4) 0.181(7) 0.2380(11)
H14C H 0.2916 0.1717 0.2423
C145 C 0.302(5) 0.208(9) 0.2360(15)
C146 C 0.316(4) 0.221(6) 0.2296(13)
H14D H 0.3170 0.2394 0.2282
C160 C 0.358(5) 0.177(7) 0.1748(13)
H16A H 0.3616 0.1975 0.1755
C161 C 0.371(4) 0.166(7) 0.1794(11)
H16B H 0.3830 0.1778 0.1831
C162 C 0.367(5) 0.137(9) 0.1784(15)
C163 C 0.350(5) 0.120(7) 0.1727(13)
H16C H 0.3475 0.1000 0.1719
C164 C 0.337(4) 0.131(7) 0.1681(10)
H16D H 0.3262 0.1195 0.1643
C165 C 0.341(5) 0.161(7) 0.1691(13)
C173 C 0.427(9) 0.053(11) 0.0981(17)
O6 O 0.273(3) 0.194(4) 0.1446(10)
O34 O 0.296(3) 0.238(5) 0.1505(7)
C2 C 0.289(6) 0.210(9) 0.1497(16)
C160 C 0.309(5) 0.156(7) 0.1585(13)
H16A H 0.3051 0.1358 0.1578
C161 C 0.296(4) 0.167(7) 0.1539(11)
H16B H 0.2837 0.1555 0.1502
C162 C 0.300(5) 0.196(9) 0.1549(15)
C163 C 0.317(5) 0.213(7) 0.1606(13)
H16C H 0.3192 0.2333 0.1614
C164 C 0.330(4) 0.202(7) 0.1652(10)
H16D H 0.3405 0.2138 0.1690
C165 C 0.326(5) 0.172(7) 0.1642(13)
O16 O 0.416(4) 0.036(6) 0.0720(7)
O17 O 0.456(3) 0.058(5) 0.0789(9)
O32 O 0.530(3) -0.057(6) 0.0370(10)
O33 O 0.575(4) -0.030(6) 0.0422(7)
C147 C 0.445(5) 0.015(8) 0.0629(13)
H14E H 0.4261 0.0134 0.0614
C148 C 0.458(6) 0.029(10) 0.0692(15)
C149 C 0.485(5) 0.031(8) 0.0712(11)
H14F H 0.4940 0.0403 0.0755
C150 C 0.500(4) 0.019(7) 0.0670(13)
H15B H 0.5181 0.0212 0.0685
C151 C 0.487(6) 0.006(10) 0.0606(15)
C152 C 0.486(5) -0.032(9) 0.0517(11)
H15C H 0.4638 -0.0414 0.0518
C153 C 0.503(7) -0.006(11) 0.0560(13)
C154 C 0.535(6) 0.007(9) 0.0557(10)
H15D H 0.5467 0.0244 0.0586
C155 C 0.549(5) -0.004(9) 0.0512(11)
H15E H 0.5703 0.0061 0.0512
C156 C 0.532(7) -0.028(11) 0.0468(13)
C157 C 0.500(6) -0.042(9) 0.0471(10)
H15F H 0.4874 -0.0590 0.0443
C158 C 0.546(8) -0.039(13) 0.0417(15)
C159 C 0.442(7) 0.041(11) 0.0736(15)
C174 C 0.460(5) 0.004(8) 0.0586(11)
H17C H 0.4506 -0.0048 0.0543
O35 O 0.254(3) -0.138(5) 0.3112(10)
O36 O 0.275(4) -0.095(7) 0.3171(7)
C166 C 0.206(6) -0.131(10) 0.3319(10)
H16E H 0.2071 -0.1198 0.3358
C167 C 0.230(5) -0.120(9) 0.3273(13)
H16F H 0.2476 -0.1004 0.3281
C168 C 0.230(7) -0.136(12) 0.3215(15)
C169 C 0.205(6) -0.166(10) 0.3205(11)
H16G H 0.2044 -0.1777 0.3167
C170 C 0.180(5) -0.177(9) 0.3252(13)
H17B H 0.1635 -0.1974 0.3244
C171 C 0.180(5) -0.160(10) 0.3309(13)
C172 C 0.254(7) -0.123(13) 0.3164(16)
O35 O 0.079(3) -0.195(5) 0.3555(10)
O36 O 0.058(4) -0.238(7) 0.3496(7)
C166 C 0.127(6) -0.202(10) 0.3348(10)
H16E H 0.1262 -0.2135 0.3309
C167 C 0.103(5) -0.213(9) 0.3394(13)
H16F H 0.0857 -0.2329 0.3386
C168 C 0.103(7) -0.197(12) 0.3452(15)
C169 C 0.128(6) -0.167(10) 0.3462(11)
H16G H 0.1289 -0.1556 0.3500
C170 C 0.153(5) -0.156(9) 0.3415(13)
H17B H 0.1698 -0.1359 0.3423
C171 C 0.153(5) -0.173(10) 0.3358(13)
C172 C 0.079(7) -0.210(13) 0.3503(16)
Zn1 Zn -0.130(4) 0.278(3) 0.1963(7)
Zn2 Zn -0.069(4) 0.308(3) 0.1877(5)
Zn3 Zn -0.067(4) 0.305(3) 0.2039(5)
Zn4 Zn -0.086(4) 0.349(2) 0.1969(6)
Zn5 Zn -0.111(4) 0.301(3) 0.0814(8)
Zn6 Zn -0.048(4) 0.342(3) 0.0760(6)
Zn7 Zn -0.078(4) 0.367(3) 0.0853(7)
Zn8 Zn -0.058(4) 0.325(3) 0.0910(6)
Zn9 Zn 0.070(4) 0.377(3) 0.3120(5)
Zn10 Zn 0.128(4) 0.407(3) 0.3036(7)
Zn11 Zn 0.085(3) 0.433(2) 0.3033(6)
Zn12 Zn 0.067(4) 0.372(3) 0.2964(5)
O1A O -0.0883(23) 0.3099(16) 0.1962(3)
O1B O -0.0737(24) 0.3338(16) 0.0834(4)
O1C O 0.0874(23) 0.3971(17) 0.3038(3)
O1 O -0.137(5) 0.253(3) 0.2036(10)
O2 O -0.068(4) 0.371(3) 0.1894(10)
O3 O -0.057(6) 0.341(5) 0.1830(7)
O4 O -0.093(5) 0.270(4) 0.2088(7)
O5 O -0.066(4) 0.368(3) 0.2044(10)
O6 O -0.139(4) 0.255(3) 0.1887(10)
O9 O -0.029(6) 0.675(4) 0.1438(9)
O10 O -0.048(6) 0.352(4) 0.0974(7)
O11 O -0.064(5) 0.382(3) 0.0934(9)
O12 O -0.008(6) 0.682(4) 0.2447(8)
O13 O 0.007(6) 0.689(4) 0.2556(9)
O14 O -0.250(5) 0.045(4) 0.2389(7)
O15 O -0.210(4) 0.064(3) 0.2459(9)
O18 O -0.269(6) 0.007(5) 0.3496(7)
O19 O -0.229(4) 0.037(3) 0.3558(10)
O21 O -0.031(5) 0.671(4) 0.1324(10)
O22 O -0.054(6) 0.336(5) 0.2094(8)
O23 O 0.064(4) 0.433(3) 0.2960(10)
O24 O 0.052(6) 0.389(4) 0.2908(7)
O25 O 0.036(5) 0.337(4) 0.2991(10)
O26 O -0.268(5) 0.017(4) 0.2644(7)
O27 O -0.221(4) 0.048(3) 0.2605(9)
O28 O 0.038(5) 0.341(4) 0.3105(9)
O34 O -0.095(5) 0.276(4) 0.1828(7)
C1 C -0.121(9) 0.251(7) 0.2083(15)
C2 C -0.123(9) 0.255(7) 0.1836(16)
C4 C -0.043(9) 0.391(6) 0.1047(16)
C5 C -0.001(10) 0.673(7) 0.2501(18)
C6 C -0.224(9) 0.066(7) 0.2405(15)
C7 C 0.024(8) 0.326(7) 0.305(2)
C8 C -0.245(9) 0.032(8) 0.3504(16)
C10 C -0.057(11) 0.366(8) 0.1839(16)
C11 C -0.043(9) 0.389(6) 0.1784(15)
C12 C -0.042(6) 0.430(4) 0.1718(13)
H12A H -0.0469 0.4457 0.1712
C13 C -0.051(8) 0.412(5) 0.1776(11)
H13A H -0.0629 0.4145 0.1811
C14 C -0.011(10) 0.468(7) 0.1482(15)
C15 C -0.011(7) 0.453(5) 0.1422(16)
H15A H -0.0112 0.4341 0.1424
C16 C -0.012(9) 0.465(7) 0.1357(16)
C17 C -0.011(8) 0.493(6) 0.1354(13)
H17A H -0.0119 0.5011 0.1310
C18 C -0.011(8) 0.508(6) 0.1414(17)
C19 C -0.010(8) 0.496(6) 0.1478(13)
H19A H -0.0103 0.5061 0.1519
C20 C -0.024(8) 0.580(6) 0.1400(16)
C21 C -0.025(7) 0.595(5) 0.1460(12)
H21A H -0.0246 0.5872 0.1504
C22 C -0.029(7) 0.620(5) 0.1454(12)
H22A H -0.0303 0.6301 0.1495
C23 C -0.030(8) 0.632(6) 0.1389(16)
C24 C -0.030(7) 0.616(5) 0.1330(12)
H24A H -0.0310 0.6236 0.1285
C25 C -0.026(7) 0.591(5) 0.1335(12)
H25A H -0.0252 0.5807 0.1295
C26 C -0.030(10) 0.661(7) 0.138(2)
C27 C -0.027(9) 0.421(6) 0.1174(15)
C28 C -0.030(6) 0.382(4) 0.1099(13)
H28A H -0.0257 0.3660 0.1091
C29 C -0.022(7) 0.397(5) 0.1162(12)
H29A H -0.0126 0.3911 0.1197
C30 C -0.024(6) 0.387(4) 0.1735(13)
H30A H -0.0178 0.3720 0.1742
C31 C -0.015(8) 0.405(5) 0.1677(12)
H31A H -0.0018 0.4033 0.1644
C32 C -0.023(9) 0.427(5) 0.1668(15)
C33 C -0.015(7) 0.449(5) 0.1295(14)
C34 C -0.020(7) 0.436(5) 0.1240(15)
C35 C -0.019(8) 0.555(6) 0.1406(10)
C36 C -0.015(8) 0.534(6) 0.1410(10)
C37 C -0.018(7) 0.442(5) 0.1603(15)
C38 C -0.014(7) 0.454(5) 0.1548(14)
C39 C -0.039(6) 0.431(4) 0.1123(13)
H39A H -0.0425 0.4476 0.1131
C40 C -0.047(7) 0.416(5) 0.1059(12)
H40A H -0.0558 0.4225 0.1024
C41 C -0.054(11) 0.361(7) 0.2093(16)
C42 C -0.041(9) 0.382(6) 0.2151(15)
C43 C -0.034(6) 0.427(4) 0.2212(14)
H43A H -0.0349 0.4452 0.2213
C44 C -0.042(7) 0.409(5) 0.2153(11)
H44A H -0.0488 0.4154 0.2114
C45 C -0.017(10) 0.461(7) 0.2451(16)
C46 C -0.015(7) 0.448(5) 0.2513(16)
H46A H -0.0147 0.4295 0.2513
C47 C -0.013(10) 0.463(7) 0.2575(16)
C48 C -0.014(8) 0.490(6) 0.2574(13)
H48A H -0.0129 0.5002 0.2616
C49 C -0.015(8) 0.503(6) 0.2512(17)
C50 C -0.017(8) 0.488(6) 0.2450(13)
H50A H -0.0188 0.4965 0.2407
C51 C -0.010(8) 0.585(6) 0.2507(16)
C52 C -0.015(7) 0.596(5) 0.2446(12)
H52A H -0.0220 0.5831 0.2406
C53 C -0.012(8) 0.625(6) 0.2444(12)
H53A H -0.0169 0.6316 0.2402
C54 C -0.003(9) 0.643(7) 0.2502(16)
C55 C 0.004(7) 0.633(5) 0.2563(12)
H55A H 0.0101 0.6451 0.2603
C56 C 0.001(8) 0.604(6) 0.2565(12)
H56A H 0.0049 0.5966 0.2606
C57 C 0.007(9) 0.434(7) 0.2749(14)
C58 C 0.020(7) 0.399(5) 0.2803(13)
H58A H 0.0195 0.3801 0.2804
C59 C 0.006(8) 0.406(5) 0.2750(11)
H59A H -0.0030 0.3922 0.2713
C60 C -0.030(7) 0.374(5) 0.2209(13)
H60A H -0.0270 0.3569 0.2207
C61 C -0.021(7) 0.392(5) 0.2268(11)
H61A H -0.0132 0.3868 0.2307
C62 C -0.024(9) 0.418(6) 0.2270(15)
C63 C -0.008(7) 0.452(5) 0.2638(14)
C64 C -0.002(7) 0.443(5) 0.2690(14)
C65 C -0.012(9) 0.556(7) 0.2509(10)
C66 C -0.015(9) 0.531(7) 0.2510(10)
C67 C -0.020(7) 0.434(5) 0.2334(14)
C68 C -0.018(7) 0.446(5) 0.2387(14)
C69 C 0.021(7) 0.455(5) 0.2803(13)
H69A H 0.0212 0.4735 0.2804
C70 C 0.035(8) 0.448(5) 0.2858(11)
H70A H 0.0438 0.4616 0.2895
C71 C 0.035(9) 0.420(6) 0.2857(15)
C72 C 0.051(11) 0.414(8) 0.2912(15)
C73 C -0.241(9) 0.040(7) 0.2652(17)
C74 C -0.234(8) 0.057(6) 0.2717(16)
C75 C -0.198(6) 0.098(4) 0.2791(13)
H75A H -0.1783 0.1151 0.2799
C76 C -0.204(6) 0.083(5) 0.2729(12)
H76A H -0.1897 0.0893 0.2693
C77 C -0.191(7) 0.133(6) 0.3025(16)
C78 C -0.204(6) 0.121(5) 0.3089(16)
H78A H -0.2229 0.1023 0.3092
C79 C -0.188(8) 0.136(7) 0.3150(15)
C80 C -0.161(7) 0.163(6) 0.3146(13)
H80A H -0.1506 0.1732 0.3187
C81 C -0.148(7) 0.175(6) 0.3082(17)
C82 C -0.163(7) 0.160(6) 0.3021(13)
H82A H -0.1545 0.1684 0.2978
C83 C -0.063(7) 0.246(6) 0.3067(16)
C84 C -0.050(6) 0.257(5) 0.3002(12)
H84A H -0.0608 0.2469 0.2961
C85 C -0.021(6) 0.282(5) 0.2996(12)
H85A H -0.0120 0.2896 0.2952
C86 C -0.004(7) 0.297(6) 0.3056(16)
C87 C -0.016(6) 0.286(5) 0.3121(12)
H87A H -0.0053 0.2952 0.3161
C88 C -0.046(6) 0.260(5) 0.3126(12)
H88A H -0.0540 0.2525 0.3170
C89 C -0.217(8) 0.093(6) 0.3334(15)
C90 C -0.257(6) 0.051(4) 0.3398(13)
H90A H -0.2776 0.0356 0.3403
C91 C -0.248(6) 0.070(5) 0.3341(11)
H91A H -0.2624 0.0677 0.3307
C92 C -0.256(6) 0.048(4) 0.2769(13)
H92A H -0.2757 0.0311 0.2762
C93 C -0.249(6) 0.063(5) 0.2832(12)
H93A H -0.2640 0.0570 0.2867
C94 C -0.220(7) 0.088(6) 0.2843(15)
C95 C -0.199(6) 0.122(5) 0.3215(14)
C96 C -0.208(6) 0.109(5) 0.3270(15)
C97 C -0.093(7) 0.221(6) 0.3073(10)
C98 C -0.118(7) 0.200(6) 0.3077(11)
C99 C -0.212(6) 0.103(5) 0.2909(15)
C100 C -0.204(6) 0.116(5) 0.2963(14)
C101 C -0.197(6) 0.097(4) 0.3385(13)
H10A H -0.1758 0.1134 0.3381
C102 C -0.206(6) 0.078(5) 0.3443(11)
H10B H -0.1911 0.0815 0.3478
C103 C -0.236(8) 0.054(6) 0.3449(15)
C135 C -0.182(7) 0.181(5) 0.2182(11)
H13D H -0.2027 0.1694 0.2183
C136 C -0.167(6) 0.206(5) 0.2136(10)
H13E H -0.1795 0.2106 0.2107
C137 C -0.135(8) 0.225(6) 0.2134(13)
C138 C -0.118(7) 0.218(5) 0.2178(11)
H13F H -0.0963 0.2304 0.2178
C139 C -0.132(6) 0.193(5) 0.2224(10)
H13G H -0.1194 0.1886 0.2253
C140 C -0.164(8) 0.174(6) 0.2226(13)
C141 C -0.207(7) 0.120(6) 0.2253(11)
H14A H -0.2153 0.1200 0.2210
C142 C -0.179(9) 0.146(7) 0.2272(15)
C143 C -0.166(6) 0.146(5) 0.2337(13)
H14B H -0.1478 0.1628 0.2351
C144 C -0.181(7) 0.120(6) 0.2380(11)
H14C H -0.1717 0.1199 0.2423
C145 C -0.208(9) 0.094(7) 0.2360(15)
C146 C -0.221(6) 0.095(5) 0.2296(13)
H14D H -0.2394 0.0776 0.2282
C160 C -0.177(7) 0.181(5) 0.1748(13)
H16A H -0.1975 0.1641 0.1755
C161 C -0.166(7) 0.205(6) 0.1794(11)
H16B H -0.1778 0.2052 0.1831
C162 C -0.137(9) 0.230(7) 0.1784(15)
C163 C -0.120(7) 0.230(5) 0.1727(13)
H16C H -0.1000 0.2475 0.1719
C164 C -0.131(7) 0.206(6) 0.1681(10)
H16D H -0.1195 0.2067 0.1643
C165 C -0.161(7) 0.180(5) 0.1691(13)
C173 C -0.053(11) 0.374(7) 0.0981(17)
O6 O -0.194(4) 0.078(3) 0.1446(10)
O34 O -0.238(5) 0.057(4) 0.1505(7)
C2 C -0.210(9) 0.078(7) 0.1497(16)
C160 C -0.156(7) 0.152(5) 0.1585(13)
H16A H -0.1358 0.1692 0.1578
C161 C -0.167(7) 0.128(6) 0.1539(11)
H16B H -0.1555 0.1281 0.1502
C162 C -0.196(9) 0.103(7) 0.1549(15)
C163 C -0.213(7) 0.103(5) 0.1606(13)
H16C H -0.2333 0.0858 0.1614
C164 C -0.202(7) 0.127(6) 0.1652(10)
H16D H -0.2138 0.1266 0.1690
C165 C -0.172(7) 0.153(5) 0.1642(13)
O16 O -0.036(6) 0.379(5) 0.0720(7)
O17 O -0.058(5) 0.397(4) 0.0789(9)
O32 O 0.057(6) 0.586(5) 0.0370(10)
O33 O 0.030(6) 0.604(5) 0.0422(7)
C147 C -0.015(8) 0.429(6) 0.0629(13)
H14E H -0.0134 0.4126 0.0614
C148 C -0.029(10) 0.428(8) 0.0692(15)
C149 C -0.031(8) 0.453(6) 0.0712(11)
H14F H -0.0403 0.4536 0.0755
C150 C -0.019(7) 0.480(6) 0.0670(13)
H15B H -0.0212 0.4968 0.0685
C151 C -0.006(10) 0.480(8) 0.0606(15)
C152 C 0.032(9) 0.517(7) 0.0517(11)
H15C H 0.0414 0.5051 0.0518
C153 C 0.006(11) 0.508(9) 0.0560(13)
C154 C -0.007(9) 0.527(7) 0.0557(10)
H15D H -0.0244 0.5222 0.0586
C155 C 0.004(9) 0.552(7) 0.0512(11)
H15E H -0.0061 0.5641 0.0512
C156 C 0.028(11) 0.559(9) 0.0468(13)
C157 C 0.042(9) 0.541(7) 0.0471(10)
H15F H 0.0590 0.5463 0.0443
C158 C 0.039(13) 0.584(10) 0.0417(15)
C159 C -0.041(11) 0.400(9) 0.0736(15)
C174 C -0.004(8) 0.455(6) 0.0586(11)
H17C H 0.0048 0.4553 0.0543
O35 O 0.138(5) 0.393(4) 0.3112(10)
O36 O 0.095(7) 0.371(6) 0.3171(7)
C166 C 0.131(10) 0.338(8) 0.3319(10)
H16E H 0.1198 0.3270 0.3358
C167 C 0.120(9) 0.351(7) 0.3273(13)
H16F H 0.1004 0.3481 0.3281
C168 C 0.136(12) 0.367(10) 0.3215(15)
C169 C 0.166(10) 0.372(8) 0.3205(11)
H16G H 0.1777 0.3822 0.3167
C170 C 0.177(9) 0.358(7) 0.3252(13)
H17B H 0.1974 0.3610 0.3244
C171 C 0.160(10) 0.341(9) 0.3309(13)
C172 C 0.123(13) 0.378(11) 0.3164(16)
O35 O 0.195(5) 0.274(4) 0.3555(10)
O36 O 0.238(7) 0.296(6) 0.3496(7)
C166 C 0.202(10) 0.329(8) 0.3348(10)
H16E H 0.2135 0.3397 0.3309
C167 C 0.213(9) 0.316(7) 0.3394(13)
H16F H 0.2329 0.3186 0.3386
C168 C 0.197(12) 0.300(10) 0.3452(15)
C169 C 0.167(10) 0.295(8) 0.3462(11)
H16G H 0.1556 0.2845 0.3500
C170 C 0.156(9) 0.309(7) 0.3415(13)
H17B H 0.1359 0.3057 0.3423
C171 C 0.173(10) 0.326(9) 0.3358(13)
C172 C 0.210(13) 0.289(11) 0.3503(16)
Zn1 Zn -0.055(3) -0.259(3) 0.1370(7)
Zn2 Zn -0.025(3) -0.290(3) 0.1456(5)
Zn3 Zn -0.028(3) -0.295(3) 0.1294(5)
Zn4 Zn 0.016(2) -0.232(3) 0.1364(6)
Zn5 Zn -0.032(3) -0.255(3) 0.2519(8)
Zn6 Zn 0.009(3) -0.277(3) 0.2573(6)
Zn7 Zn 0.034(3) -0.222(3) 0.2480(7)
Zn8 Zn -0.008(3) -0.284(3) 0.2423(6)
Zn9 Zn 0.044(3) -0.360(3) 0.0213(5)
Zn10 Zn 0.074(3) -0.388(3) 0.0297(7)
Zn11 Zn 0.100(2) -0.319(2) 0.0300(6)
Zn12 Zn 0.039(3) -0.362(3) 0.0369(5)
O1A O -0.0234(16) -0.2685(17) 0.1371(3)
O1B O 0.0005(16) -0.2592(18) 0.2499(4)
O1C O 0.0638(17) -0.3570(16) 0.0295(3)
O1 O -0.080(3) -0.277(4) 0.1297(10)
O2 O 0.038(3) -0.228(3) 0.1439(10)
O3 O 0.008(5) -0.269(4) 0.1503(7)
O4 O -0.063(4) -0.304(3) 0.1245(7)
O5 O 0.035(3) -0.233(3) 0.1289(10)
O7 O -0.040(5) -0.219(5) 0.1364(7)
O8 O 0.011(4) -0.200(3) 0.1359(7)
O9 O 0.342(4) 0.037(4) 0.1895(9)
O10 O 0.019(4) -0.267(4) 0.2359(7)
O11 O 0.049(3) -0.221(4) 0.2399(9)
O12 O 0.349(4) 0.023(4) 0.0886(8)
O13 O 0.356(4) 0.015(4) 0.0777(9)
O14 O -0.288(4) -0.372(3) 0.0944(7)
O15 O -0.269(3) -0.393(3) 0.0874(9)
O18 O -0.326(5) -0.391(3) -0.0163(7)
O19 O -0.296(3) -0.401(3) -0.0225(10)
O20 O 0.133(3) -0.323(4) 0.0307(7)
O21 O 0.338(4) 0.035(3) 0.2009(10)
O22 O 0.003(5) -0.277(4) 0.1239(8)
O23 O 0.100(3) -0.298(3) 0.0373(10)
O24 O 0.056(4) -0.330(5) 0.0425(7)
O25 O 0.004(4) -0.366(3) 0.0342(10)
O26 O -0.316(4) -0.382(3) 0.0689(7)
O27 O -0.285(3) -0.398(3) 0.0728(9)
O28 O 0.008(4) -0.364(3) 0.0228(9)
O31 O 0.114(5) -0.373(5) 0.0302(7)
C1 C -0.082(7) -0.295(6) 0.1250(15)
C3 C -0.013(9) -0.197(8) 0.1359(10)
C4 C 0.058(6) -0.233(7) 0.2286(16)
C5 C 0.340(7) 0.007(7) 0.0832(18)
C6 C -0.267(7) -0.377(5) 0.0928(15)
C7 C -0.007(7) -0.365(4) 0.028(2)
C8 C -0.301(8) -0.390(5) -0.0171(16)
C9 C 0.137(8) -0.346(9) 0.0307(10)
C10 C 0.033(8) -0.244(8) 0.1494(16)
C11 C 0.056(6) -0.235(7) 0.1549(15)
C12 C 0.097(4) -0.195(5) 0.1615(13)
H12A H 0.1124 -0.1741 0.1621
C13 C 0.079(5) -0.204(6) 0.1557(11)
H13A H 0.0812 -0.1893 0.1522
C14 C 0.135(7) -0.188(7) 0.1851(15)
C15 C 0.120(5) -0.203(5) 0.1911(16)
H15A H 0.1008 -0.2214 0.1909
C16 C 0.132(7) -0.190(6) 0.1976(16)
C17 C 0.160(6) -0.163(6) 0.1979(13)
H17A H 0.1678 -0.1537 0.2023
C18 C 0.175(6) -0.148(6) 0.1919(17)
C19 C 0.163(6) -0.161(6) 0.1855(13)
H19A H 0.1728 -0.1503 0.1814
C20 C 0.247(6) -0.063(6) 0.1933(16)
C21 C 0.262(5) -0.047(5) 0.1873(12)
H21A H 0.2539 -0.0549 0.1829
C22 C 0.287(5) -0.018(5) 0.1879(12)
H22A H 0.2968 -0.0063 0.1838
C23 C 0.299(6) -0.005(6) 0.1944(16)
C24 C 0.283(5) -0.021(5) 0.2003(12)
H24A H 0.2903 -0.0121 0.2048
C25 C 0.258(5) -0.050(5) 0.1998(12)
H25A H 0.2474 -0.0608 0.2038
C26 C 0.328(7) 0.024(7) 0.195(2)
C27 C 0.088(6) -0.219(7) 0.2159(15)
C28 C 0.049(4) -0.255(5) 0.2234(13)
H28A H 0.0327 -0.2750 0.2242
C29 C 0.064(5) -0.248(5) 0.2171(12)
H29A H 0.0578 -0.2630 0.2136
C30 C 0.054(4) -0.256(5) 0.1598(13)
H30A H 0.0387 -0.2769 0.1591
C31 C 0.072(5) -0.247(6) 0.1656(12)
H31A H 0.0700 -0.2616 0.1689
C32 C 0.094(5) -0.217(7) 0.1665(15)
C33 C 0.116(5) -0.203(5) 0.2038(14)
C34 C 0.103(5) -0.211(5) 0.2093(15)
C35 C 0.222(6) -0.093(6) 0.1927(10)
C36 C 0.201(6) -0.118(6) 0.1923(10)
C37 C 0.109(5) -0.207(5) 0.1730(15)
C38 C 0.121(5) -0.199(5) 0.1785(14)
C39 C 0.098(4) -0.197(5) 0.2210(13)
H39A H 0.1143 -0.1766 0.2202
C40 C 0.083(5) -0.204(5) 0.2274(12)
H40A H 0.0892 -0.1884 0.2309
C41 C 0.028(7) -0.252(8) 0.1240(16)
C42 C 0.049(6) -0.244(7) 0.1182(15)
C43 C 0.094(4) -0.206(5) 0.1121(14)
H43A H 0.1119 -0.1866 0.1120
C44 C 0.076(5) -0.216(5) 0.1180(11)
H44A H 0.0821 -0.2025 0.1219
C45 C 0.128(7) -0.189(7) 0.0882(16)
C46 C 0.115(5) -0.204(5) 0.0820(16)
H46A H 0.0962 -0.2225 0.0820
C47 C 0.130(7) -0.191(7) 0.0758(16)
C48 C 0.157(6) -0.163(6) 0.0759(13)
H48A H 0.1669 -0.1536 0.0717
C49 C 0.170(6) -0.149(6) 0.0821(17)
C50 C 0.155(6) -0.162(6) 0.0883(13)
H50A H 0.1632 -0.1514 0.0926
C51 C 0.252(6) -0.072(6) 0.0826(16)
C52 C 0.263(5) -0.056(5) 0.0887(12)
H52A H 0.2498 -0.0616 0.0927
C53 C 0.292(6) -0.030(5) 0.0889(12)
H53A H 0.2983 -0.0182 0.0931
C54 C 0.310(7) -0.021(6) 0.0831(16)
C55 C 0.300(5) -0.038(5) 0.0770(12)
H55A H 0.3118 -0.0317 0.0730
C56 C 0.271(6) -0.064(5) 0.0768(12)
H56A H 0.2633 -0.0750 0.0727
C57 C 0.101(7) -0.240(6) 0.0584(14)
C58 C 0.066(5) -0.288(5) 0.0530(13)
H58A H 0.0468 -0.3061 0.0529
C59 C 0.073(5) -0.267(6) 0.0583(11)
H59A H 0.0589 -0.2715 0.0620
C60 C 0.041(5) -0.263(5) 0.1124(13)
H60A H 0.0236 -0.2828 0.1126
C61 C 0.059(5) -0.254(5) 0.1065(11)
H61A H 0.0535 -0.2667 0.1026
C62 C 0.085(6) -0.225(7) 0.1063(15)
C63 C 0.119(5) -0.207(5) 0.0695(14)
C64 C 0.110(5) -0.222(5) 0.0643(14)
C65 C 0.223(7) -0.099(6) 0.0824(10)
C66 C 0.198(7) -0.121(6) 0.0823(10)
C67 C 0.101(5) -0.213(5) 0.0999(14)
C68 C 0.113(5) -0.203(5) 0.0946(14)
C69 C 0.122(5) -0.233(5) 0.0530(13)
H69A H 0.1402 -0.2144 0.0529
C70 C 0.115(5) -0.254(6) 0.0475(11)
H70A H 0.1283 -0.2489 0.0438
C71 C 0.087(6) -0.282(7) 0.0476(15)
C72 C 0.081(8) -0.304(7) 0.0421(15)
C73 C -0.293(7) -0.386(5) 0.0681(17)
C74 C -0.276(6) -0.376(5) 0.0616(16)
C75 C -0.235(4) -0.371(4) 0.0542(13)
H75A H -0.2182 -0.3733 0.0534
C76 C -0.250(5) -0.380(4) 0.0604(12)
H76A H -0.2440 -0.3877 0.0640
C77 C -0.200(6) -0.343(4) 0.0308(16)
C78 C -0.212(5) -0.342(4) 0.0244(16)
H78A H -0.2310 -0.3415 0.0241
C79 C -0.197(7) -0.343(4) 0.0183(15)
C80 C -0.170(6) -0.343(4) 0.0187(13)
H80A H -0.1601 -0.3429 0.0146
C81 C -0.158(6) -0.344(4) 0.0251(17)
C82 C -0.173(6) -0.344(4) 0.0312(13)
H82A H -0.1649 -0.3438 0.0355
C83 C -0.087(6) -0.358(4) 0.0266(16)
C84 C -0.076(5) -0.360(4) 0.0331(12)
H84A H -0.0864 -0.3590 0.0372
C85 C -0.051(5) -0.364(4) 0.0337(12)
H85A H -0.0437 -0.3651 0.0381
C86 C -0.036(6) -0.366(4) 0.0277(16)
C87 C -0.047(5) -0.365(4) 0.0212(12)
H87A H -0.0381 -0.3662 0.0172
C88 C -0.073(5) -0.361(4) 0.0207(12)
H88A H -0.0808 -0.3602 0.0163
C89 C -0.240(6) -0.357(5) -0.0001(15)
C90 C -0.282(4) -0.359(4) -0.0065(13)
H90A H -0.2977 -0.3535 -0.0070
C91 C -0.263(5) -0.349(4) -0.0008(11)
H91A H -0.2656 -0.3366 0.0026
C92 C -0.285(4) -0.363(4) 0.0564(13)
H92A H -0.3022 -0.3599 0.0571
C93 C -0.270(5) -0.355(4) 0.0501(12)
H93A H -0.2763 -0.3457 0.0466
C94 C -0.245(6) -0.359(4) 0.0490(15)
C95 C -0.211(5) -0.346(4) 0.0118(14)
C96 C -0.224(5) -0.350(4) 0.0063(15)
C97 C -0.112(6) -0.353(4) 0.0260(10)
C98 C -0.133(6) -0.349(4) 0.0256(11)
C99 C -0.230(5) -0.352(4) 0.0424(15)
C100 C -0.217(5) -0.347(4) 0.0370(14)
C101 C -0.236(4) -0.373(4) -0.0052(13)
H10A H -0.2199 -0.3775 -0.0048
C102 C -0.255(5) -0.383(4) -0.0110(11)
H10B H -0.2518 -0.3941 -0.0145
C103 C -0.279(6) -0.377(5) -0.0116(15)
C115 C -0.009(7) -0.166(7) 0.1353(9)
C116 C -0.031(5) -0.134(6) 0.1344(8)
H11C H -0.0490 -0.1313 0.1343
C117 C -0.035(5) -0.163(5) 0.1352(8)
H11D H -0.0546 -0.1796 0.1357
C118 C 0.001(11) -0.028(8) 0.1319(10)
C119 C 0.028(7) 0.000(10) 0.1319(8)
H11E H 0.0468 0.0009 0.1319
C120 C 0.020(5) -0.141(6) 0.1346(8)
H12B H 0.0375 -0.1424 0.1347
C121 C -0.002(7) -0.109(7) 0.1337(9)
C122 C 0.024(5) -0.112(5) 0.1338(8)
H12C H 0.0430 -0.0940 0.1334
C123 C 0.001(5) -0.055(6) 0.1323(9)
C124 C -0.000(4) -0.079(7) 0.1329(9)
C125 C 0.307(8) -0.333(11) 0.0336(9)
C126 C 0.306(7) -0.361(7) 0.0336(8)
H12D H 0.2864 -0.3789 0.0337
C127 C 0.226(7) -0.336(7) 0.0325(9)
C128 C 0.200(6) -0.365(5) 0.0321(8)
H12E H 0.2019 -0.3817 0.0322
C129 C 0.171(5) -0.368(5) 0.0315(8)
H12F H 0.1535 -0.3874 0.0312
C130 C 0.167(7) -0.342(7) 0.0313(9)
C131 C 0.193(6) -0.313(5) 0.0317(8)
H13B H 0.1908 -0.2952 0.0316
C132 C 0.222(5) -0.310(5) 0.0323(8)
H13C H 0.2395 -0.2897 0.0326
C133 C 0.279(6) -0.332(5) 0.0334(9)
C134 C 0.255(7) -0.333(5) 0.0330(9)
C135 C -0.152(5) -0.304(5) 0.1151(11)
H13D H -0.1639 -0.2946 0.1150
C136 C -0.127(5) -0.294(4) 0.1197(10)
H13E H -0.1227 -0.2766 0.1226
C137 C -0.108(6) -0.307(6) 0.1199(13)
C138 C -0.115(5) -0.331(5) 0.1155(11)
H13F H -0.1029 -0.3400 0.1155
C139 C -0.140(5) -0.342(4) 0.1109(10)
H13G H -0.1447 -0.3587 0.1080
C140 C -0.159(6) -0.329(6) 0.1107(13)
C141 C -0.213(6) -0.340(4) 0.1080(11)
H14A H -0.2133 -0.3314 0.1123
C142 C -0.187(7) -0.342(5) 0.1061(15)
C143 C -0.187(5) -0.355(4) 0.0996(13)
H14B H -0.1705 -0.3561 0.0982
C144 C -0.213(6) -0.366(4) 0.0953(11)
H14C H -0.2134 -0.3751 0.0910
C145 C -0.239(7) -0.365(5) 0.0973(15)
C146 C -0.238(5) -0.351(4) 0.1037(13)
H14D H -0.2557 -0.3497 0.1051
C173 C 0.041(7) -0.240(9) 0.2352(17)
O7 O 0.219(5) 0.178(7) 0.1364(7)
O8 O 0.200(3) 0.210(5) 0.1359(7)
C3 C 0.197(8) 0.183(12) 0.1359(10)
C115 C 0.166(7) 0.156(10) 0.1353(9)
C116 C 0.134(6) 0.102(8) 0.1344(8)
H11C H 0.1313 0.0822 0.1343
C117 C 0.163(5) 0.127(7) 0.1352(8)
H11D H 0.1796 0.1249 0.1357
C118 C 0.028(8) 0.028(14) 0.1319(10)
C119 C -0.000(10) 0.027(12) 0.1319(8)
H11E H -0.0009 0.0458 0.1319
C120 C 0.141(6) 0.160(8) 0.1346(8)
H12B H 0.1424 0.1798 0.1347
C121 C 0.109(7) 0.106(10) 0.1337(9)
C122 C 0.112(5) 0.135(7) 0.1338(8)
H12C H 0.0940 0.1369 0.1334
C123 C 0.055(6) 0.055(8) 0.1323(9)
C124 C 0.079(7) 0.078(8) 0.1329(9)
O7 O -0.178(7) 0.040(5) 0.1364(7)
O8 O -0.210(5) -0.011(4) 0.1359(7)
C3 C -0.183(12) 0.013(9) 0.1359(10)
C115 C -0.156(10) 0.009(7) 0.1353(9)
C116 C -0.102(8) 0.031(5) 0.1344(8)
H11C H -0.0822 0.0490 0.1343
C117 C -0.127(7) 0.035(5) 0.1352(8)
H11D H -0.1249 0.0546 0.1357
C118 C -0.028(14) -0.001(11) 0.1319(10)
C119 C -0.027(12) -0.028(7) 0.1319(8)
H11E H -0.0458 -0.0468 0.1319
C120 C -0.160(8) -0.020(5) 0.1346(8)
H12B H -0.1798 -0.0375 0.1347
C121 C -0.106(10) 0.002(7) 0.1337(9)
C122 C -0.135(7) -0.024(5) 0.1338(8)
H12C H -0.1369 -0.0430 0.1334
C123 C -0.055(8) -0.001(5) 0.1323(9)
C124 C -0.078(8) 0.000(4) 0.1329(9)
O20 O 0.323(4) -0.545(5) 0.0307(7)
O31 O 0.373(5) -0.514(7) 0.0302(7)
C9 C 0.346(9) -0.518(12) 0.0307(10)
C125 C 0.333(11) -0.361(14) 0.0336(9)
C126 C 0.361(7) -0.334(10) 0.0336(8)
H12D H 0.3789 -0.3348 0.0337
C127 C 0.336(7) -0.439(10) 0.0325(9)
C128 C 0.365(5) -0.436(8) 0.0321(8)
H12E H 0.3817 -0.4165 0.0322
C129 C 0.368(5) -0.462(7) 0.0315(8)
H12F H 0.3874 -0.4592 0.0312
C130 C 0.342(7) -0.492(10) 0.0313(9)
C131 C 0.313(5) -0.495(8) 0.0317(8)
H13B H 0.2952 -0.5141 0.0316
C132 C 0.310(5) -0.469(7) 0.0323(8)
H13C H 0.2897 -0.4709 0.0326
C133 C 0.332(5) -0.390(8) 0.0334(9)
C134 C 0.333(5) -0.413(9) 0.0330(9)
O20 O 0.545(5) -0.133(3) 0.0307(7)
O31 O 0.514(7) -0.114(5) 0.0302(7)
C9 C 0.518(12) -0.137(8) 0.0307(10)
C125 C 0.361(14) -0.307(8) 0.0336(9)
C126 C 0.334(10) -0.306(7) 0.0336(8)
H12D H 0.3348 -0.2864 0.0337
C127 C 0.439(10) -0.226(7) 0.0325(9)
C128 C 0.436(8) -0.200(6) 0.0321(8)
H12E H 0.4165 -0.2019 0.0322
C129 C 0.462(7) -0.171(5) 0.0315(8)
H12F H 0.4592 -0.1535 0.0312
C130 C 0.492(10) -0.167(7) 0.0313(9)
C131 C 0.495(8) -0.193(6) 0.0317(8)
H13B H 0.5141 -0.1908 0.0316
C132 C 0.469(7) -0.222(5) 0.0323(8)
H13C H 0.4709 -0.2395 0.0326
C133 C 0.390(8) -0.279(6) 0.0334(9)
C134 C 0.413(9) -0.255(7) 0.0330(9)
O29 O -0.024(4) -0.216(5) 0.2519(6)
O30 O 0.025(4) -0.192(3) 0.2487(6)
C104 C 0.000(7) -0.163(7) 0.2504(10)
C105 C -0.026(5) -0.134(6) 0.2523(9)
H10C H -0.0439 -0.1341 0.2535
C106 C -0.026(5) -0.162(5) 0.2523(8)
H10D H -0.0440 -0.1803 0.2534
C107 C 0.000(11) -0.027(8) 0.2508(10)
C108 C 0.028(7) 0.000(10) 0.2508(8)
H10E H 0.0464 0.0003 0.2508
C109 C 0.000(7) -0.107(7) 0.2506(10)
C110 C 0.027(5) -0.135(6) 0.2487(8)
H11A H 0.0450 -0.1356 0.2475
C111 C 0.027(5) -0.108(5) 0.2488(9)
H11B H 0.0449 -0.0894 0.2477
C112 C 0.000(5) -0.056(7) 0.2507(9)
C113 C 0.000(4) -0.079(7) 0.2507(9)
C114 C 0.000(8) -0.192(8) 0.2503(11)
O29 O 0.216(5) 0.192(6) 0.2519(6)
O30 O 0.192(3) 0.217(5) 0.2487(6)
C104 C 0.163(7) 0.163(10) 0.2504(10)
C105 C 0.134(6) 0.108(8) 0.2523(9)
H10C H 0.1341 0.0902 0.2535
C106 C 0.162(5) 0.136(7) 0.2523(8)
H10D H 0.1803 0.1363 0.2534
C107 C 0.027(8) 0.027(14) 0.2508(10)
C108 C -0.000(10) 0.028(12) 0.2508(8)
H10E H -0.0003 0.0461 0.2508
C109 C 0.107(7) 0.107(10) 0.2506(10)
C110 C 0.135(6) 0.162(8) 0.2487(8)
H11A H 0.1356 0.1806 0.2475
C111 C 0.108(5) 0.135(7) 0.2488(9)
H11B H 0.0894 0.1343 0.2477
C112 C 0.056(7) 0.056(9) 0.2507(9)
C113 C 0.079(7) 0.079(8) 0.2507(9)
C114 C 0.192(8) 0.192(11) 0.2503(11)
O29 O -0.192(6) 0.024(4) 0.2519(6)
O30 O -0.217(5) -0.025(4) 0.2487(6)
C104 C -0.163(10) -0.000(7) 0.2504(10)
C105 C -0.108(8) 0.026(5) 0.2523(9)
H10C H -0.0902 0.0439 0.2535
C106 C -0.136(7) 0.026(5) 0.2523(8)
H10D H -0.1363 0.0440 0.2534
C107 C -0.027(14) -0.000(11) 0.2508(10)
C108 C -0.028(12) -0.028(7) 0.2508(8)
H10E H -0.0461 -0.0464 0.2508
C109 C -0.107(10) -0.000(7) 0.2506(10)
C110 C -0.162(8) -0.027(5) 0.2487(8)
H11A H -0.1806 -0.0450 0.2475
C111 C -0.135(7) -0.027(5) 0.2488(9)
H11B H -0.1343 -0.0449 0.2477
C112 C -0.056(9) -0.000(5) 0.2507(9)
C113 C -0.079(8) -0.000(4) 0.2507(9)
C114 C -0.192(11) -0.000(8) 0.2503(11)
O16 O 0.046(5) -0.251(4) 0.2613(7)
O17 O 0.064(4) -0.211(3) 0.2544(9)
O32 O 0.253(5) -0.137(3) 0.2963(10)
O33 O 0.271(5) -0.092(4) 0.2911(7)
C147 C 0.096(6) -0.222(5) 0.2704(13)
H14E H 0.0793 -0.2406 0.2719
C148 C 0.095(8) -0.209(6) 0.2641(15)
C149 C 0.120(6) -0.182(5) 0.2621(11)
H14F H 0.1203 -0.1727 0.2578
C150 C 0.147(6) -0.167(4) 0.2663(13)
H15B H 0.1635 -0.1486 0.2648
C151 C 0.147(8) -0.180(6) 0.2727(15)
C152 C 0.184(7) -0.181(5) 0.2816(11)
H15C H 0.1718 -0.2029 0.2815
C153 C 0.175(9) -0.164(7) 0.2773(13)
C154 C 0.194(7) -0.132(6) 0.2776(10)
H15D H 0.1889 -0.1200 0.2747
C155 C 0.219(7) -0.118(5) 0.2821(11)
H15E H 0.2308 -0.0964 0.2821
C156 C 0.226(9) -0.135(7) 0.2865(13)
C157 C 0.208(7) -0.167(6) 0.2862(10)
H15F H 0.2130 -0.1793 0.2890
C158 C 0.251(10) -0.121(8) 0.2916(15)
C159 C 0.067(9) -0.225(7) 0.2597(15)
C174 C 0.122(6) -0.207(5) 0.2747(11)
H17C H 0.1220 -0.2161 0.2790
Zn1 Zn 0.259(3) 0.203(4) 0.1370(7)
Zn2 Zn 0.290(3) 0.264(4) 0.1456(5)
Zn3 Zn 0.295(3) 0.266(4) 0.1294(5)
Zn4 Zn 0.232(3) 0.247(4) 0.1364(6)
Zn5 Zn 0.255(3) 0.222(4) 0.2519(8)
Zn6 Zn 0.277(3) 0.285(4) 0.2573(6)
Zn7 Zn 0.222(3) 0.255(4) 0.2480(7)
Zn8 Zn 0.284(3) 0.275(4) 0.2423(6)
Zn9 Zn 0.360(3) 0.403(4) 0.0213(5)
Zn10 Zn 0.388(3) 0.461(4) 0.0297(7)
Zn11 Zn 0.319(2) 0.418(3) 0.0300(6)
Zn12 Zn 0.362(3) 0.400(4) 0.0369(5)
O1A O 0.2685(17) 0.2450(23) 0.1371(3)
O1B O 0.2592(18) 0.2596(24) 0.2499(4)
O1C O 0.3570(16) 0.4207(23) 0.0295(3)
O1 O 0.277(4) 0.196(5) 0.1297(10)
O2 O 0.228(3) 0.265(4) 0.1439(10)
O3 O 0.269(4) 0.276(6) 0.1503(7)
O4 O 0.304(3) 0.240(5) 0.1245(7)
O5 O 0.233(3) 0.267(4) 0.1289(10)
O9 O -0.037(4) 0.304(6) 0.1895(9)
O10 O 0.267(4) 0.285(6) 0.2359(7)
O11 O 0.221(4) 0.269(5) 0.2399(9)
O12 O -0.023(4) 0.325(6) 0.0886(8)
O13 O -0.015(4) 0.340(6) 0.0777(9)
O14 O 0.372(3) 0.083(5) 0.0944(7)
O15 O 0.393(3) 0.123(4) 0.0874(9)
O18 O 0.391(3) 0.064(6) -0.0163(7)
O19 O 0.401(3) 0.104(4) -0.0225(10)
O21 O -0.035(3) 0.302(5) 0.2009(10)
O22 O 0.277(4) 0.279(6) 0.1239(8)
O23 O 0.298(3) 0.397(4) 0.0373(10)
O24 O 0.330(5) 0.385(6) 0.0425(7)
O25 O 0.366(3) 0.369(5) 0.0342(10)
O26 O 0.382(3) 0.065(5) 0.0689(7)
O27 O 0.398(3) 0.112(4) 0.0728(9)
O28 O 0.364(3) 0.371(5) 0.0228(9)
C1 C 0.295(6) 0.212(9) 0.1250(15)
C4 C 0.233(7) 0.290(9) 0.2286(16)
C5 C -0.007(7) 0.332(10) 0.0832(18)
C6 C 0.377(5) 0.109(9) 0.0928(15)
C7 C 0.365(4) 0.357(8) 0.028(2)
C8 C 0.390(5) 0.088(9) -0.0171(16)
C10 C 0.244(8) 0.276(11) 0.1494(16)
C11 C 0.235(7) 0.290(9) 0.1549(15)
C12 C 0.195(5) 0.291(6) 0.1615(13)
H12A H 0.1741 0.2864 0.1621
C13 C 0.204(6) 0.282(8) 0.1557(11)
H13A H 0.1893 0.2704 0.1522
C14 C 0.188(7) 0.322(10) 0.1851(15)
C15 C 0.203(5) 0.322(7) 0.1911(16)
H15A H 0.2214 0.3221 0.1909
C16 C 0.190(6) 0.321(9) 0.1976(16)
C17 C 0.163(6) 0.322(8) 0.1979(13)
H17A H 0.1537 0.3214 0.2023
C18 C 0.148(6) 0.322(8) 0.1919(17)
C19 C 0.161(6) 0.323(8) 0.1855(13)
H19A H 0.1503 0.3230 0.1814
C20 C 0.063(6) 0.309(8) 0.1933(16)
C21 C 0.047(5) 0.308(7) 0.1873(12)
H21A H 0.0549 0.3087 0.1829
C22 C 0.018(5) 0.304(7) 0.1879(12)
H22A H 0.0063 0.3030 0.1838
C23 C 0.005(6) 0.303(8) 0.1944(16)
C24 C 0.021(5) 0.303(7) 0.2003(12)
H24A H 0.0121 0.3023 0.2048
C25 C 0.050(5) 0.307(7) 0.1998(12)
H25A H 0.0608 0.3081 0.2038
C26 C -0.024(7) 0.303(10) 0.195(2)
C27 C 0.219(7) 0.306(9) 0.2159(15)
C28 C 0.255(5) 0.303(6) 0.2234(13)
H28A H 0.2750 0.3076 0.2242
C29 C 0.248(5) 0.311(7) 0.2171(12)
H29A H 0.2630 0.3207 0.2136
C30 C 0.256(5) 0.309(6) 0.1598(13)
H30A H 0.2769 0.3155 0.1591
C31 C 0.247(6) 0.318(8) 0.1656(12)
H31A H 0.2616 0.3315 0.1689
C32 C 0.217(7) 0.310(9) 0.1665(15)
C33 C 0.203(5) 0.318(7) 0.2038(14)
C34 C 0.211(5) 0.313(7) 0.2093(15)
C35 C 0.093(6) 0.314(8) 0.1927(10)
C36 C 0.118(6) 0.318(8) 0.1923(10)
C37 C 0.207(5) 0.315(7) 0.1730(15)
C38 C 0.199(5) 0.319(7) 0.1785(14)
C39 C 0.197(5) 0.294(6) 0.2210(13)
H39A H 0.1766 0.2908 0.2202
C40 C 0.204(5) 0.286(7) 0.2274(12)
H40A H 0.1884 0.2775 0.2309
C41 C 0.252(8) 0.279(11) 0.1240(16)
C42 C 0.244(7) 0.292(9) 0.1182(15)
C43 C 0.206(5) 0.299(6) 0.1121(14)
H43A H 0.1866 0.2984 0.1120
C44 C 0.216(5) 0.291(7) 0.1180(11)
H44A H 0.2025 0.2845 0.1219
C45 C 0.189(7) 0.316(10) 0.0882(16)
C46 C 0.204(5) 0.318(7) 0.0820(16)
H46A H 0.2225 0.3186 0.0820
C47 C 0.191(7) 0.320(10) 0.0758(16)
C48 C 0.163(6) 0.319(8) 0.0759(13)
H48A H 0.1536 0.3204 0.0717
C49 C 0.149(6) 0.318(8) 0.0821(17)
C50 C 0.162(6) 0.316(8) 0.0883(13)
H50A H 0.1514 0.3145 0.0926
C51 C 0.072(6) 0.323(8) 0.0826(16)
C52 C 0.056(5) 0.318(7) 0.0887(12)
H52A H 0.0616 0.3113 0.0927
C53 C 0.030(5) 0.321(8) 0.0889(12)
H53A H 0.0182 0.3164 0.0931
C54 C 0.021(6) 0.330(9) 0.0831(16)
C55 C 0.038(5) 0.337(7) 0.0770(12)
H55A H 0.0317 0.3434 0.0730
C56 C 0.064(5) 0.334(8) 0.0768(12)
H56A H 0.0750 0.3382 0.0727
C57 C 0.240(6) 0.340(9) 0.0584(14)
C58 C 0.288(5) 0.353(7) 0.0530(13)
H58A H 0.3061 0.3528 0.0529
C59 C 0.267(6) 0.339(8) 0.0583(11)
H59A H 0.2715 0.3303 0.0620
C60 C 0.263(5) 0.303(7) 0.1124(13)
H60A H 0.2828 0.3063 0.1126
C61 C 0.254(5) 0.312(7) 0.1065(11)
H61A H 0.2667 0.3201 0.1026
C62 C 0.225(7) 0.309(9) 0.1063(15)
C63 C 0.207(5) 0.325(7) 0.0695(14)
C64 C 0.222(5) 0.331(7) 0.0643(14)
C65 C 0.099(6) 0.321(9) 0.0824(10)
C66 C 0.121(6) 0.318(9) 0.0823(10)
C67 C 0.213(5) 0.313(7) 0.0999(14)
C68 C 0.203(5) 0.315(7) 0.0946(14)
C69 C 0.233(5) 0.354(7) 0.0530(13)
H69A H 0.2144 0.3545 0.0529
C70 C 0.254(6) 0.368(8) 0.0475(11)
H70A H 0.2489 0.3771 0.0438
C71 C 0.282(7) 0.368(9) 0.0476(15)
C72 C 0.304(7) 0.384(11) 0.0421(15)
C73 C 0.386(5) 0.092(9) 0.0681(17)
C74 C 0.376(5) 0.099(8) 0.0616(16)
C75 C 0.371(4) 0.135(6) 0.0542(13)
H75A H 0.3733 0.1550 0.0534
C76 C 0.380(4) 0.129(6) 0.0604(12)
H76A H 0.3877 0.1436 0.0640
C77 C 0.343(4) 0.142(7) 0.0308(16)
C78 C 0.342(4) 0.129(6) 0.0244(16)
H78A H 0.3415 0.1104 0.0241
C79 C 0.343(4) 0.145(8) 0.0183(15)
C80 C 0.343(4) 0.172(7) 0.0187(13)
H80A H 0.3429 0.1827 0.0146
C81 C 0.344(4) 0.185(7) 0.0251(17)
C82 C 0.344(4) 0.170(7) 0.0312(13)
H82A H 0.3438 0.1788 0.0355
C83 C 0.358(4) 0.270(7) 0.0266(16)
C84 C 0.360(4) 0.283(6) 0.0331(12)
H84A H 0.3590 0.2725 0.0372
C85 C 0.364(4) 0.312(6) 0.0337(12)
H85A H 0.3651 0.3213 0.0381
C86 C 0.366(4) 0.329(7) 0.0277(16)
C87 C 0.365(4) 0.317(6) 0.0212(12)
H87A H 0.3662 0.3280 0.0172
C88 C 0.361(4) 0.287(6) 0.0207(12)
H88A H 0.3602 0.2793 0.0163
C89 C 0.357(5) 0.116(8) -0.0001(15)
C90 C 0.359(4) 0.076(6) -0.0065(13)
H90A H 0.3535 0.0557 -0.0070
C91 C 0.349(4) 0.085(6) -0.0008(11)
H91A H 0.3366 0.0709 0.0026
C92 C 0.363(4) 0.077(6) 0.0564(13)
H92A H 0.3599 0.0576 0.0571
C93 C 0.355(4) 0.084(6) 0.0501(12)
H93A H 0.3457 0.0693 0.0466
C94 C 0.359(4) 0.113(7) 0.0490(15)
C95 C 0.346(4) 0.134(6) 0.0118(14)
C96 C 0.350(4) 0.125(6) 0.0063(15)
C97 C 0.353(4) 0.240(7) 0.0260(10)
C98 C 0.349(4) 0.215(7) 0.0256(11)
C99 C 0.352(4) 0.121(6) 0.0424(15)
C100 C 0.347(4) 0.129(6) 0.0370(14)
C101 C 0.373(4) 0.136(6) -0.0052(13)
H10A H 0.3775 0.1575 -0.0048
C102 C 0.383(4) 0.127(6) -0.0110(11)
H10B H 0.3941 0.1422 -0.0145
C103 C 0.377(5) 0.097(8) -0.0116(15)
C135 C 0.304(5) 0.151(7) 0.1151(11)
H13D H 0.2946 0.1306 0.1150
C136 C 0.294(4) 0.166(6) 0.1197(10)
H13E H 0.2766 0.1538 0.1226
C137 C 0.307(6) 0.198(8) 0.1199(13)
C138 C 0.331(5) 0.215(7) 0.1155(11)
H13F H 0.3400 0.2370 0.1155
C139 C 0.342(4) 0.201(6) 0.1109(10)
H13G H 0.3587 0.2139 0.1080
C140 C 0.329(6) 0.169(8) 0.1107(13)
C141 C 0.340(4) 0.126(7) 0.1080(11)
H14A H 0.3314 0.1180 0.1123
C142 C 0.342(5) 0.154(9) 0.1061(15)
C143 C 0.355(4) 0.167(6) 0.0996(13)
H14B H 0.3561 0.1855 0.0982
C144 C 0.366(4) 0.152(7) 0.0953(11)
H14C H 0.3751 0.1616 0.0910
C145 C 0.365(5) 0.125(9) 0.0973(15)
C146 C 0.351(4) 0.112(6) 0.1037(13)
H14D H 0.3497 0.0939 0.1051
C173 C 0.240(9) 0.280(11) 0.2352(17)
O16 O 0.251(4) 0.297(6) 0.2613(7)
O17 O 0.211(3) 0.275(5) 0.2544(9)
O32 O 0.137(3) 0.390(6) 0.2963(10)
O33 O 0.092(4) 0.363(6) 0.2911(7)
C147 C 0.222(5) 0.318(8) 0.2704(13)
H14E H 0.2406 0.3199 0.2719
C148 C 0.209(6) 0.304(10) 0.2641(15)
C149 C 0.182(5) 0.302(8) 0.2621(11)
H14F H 0.1727 0.2930 0.2578
C150 C 0.167(4) 0.314(7) 0.2663(13)
H15B H 0.1486 0.3121 0.2648
C151 C 0.180(6) 0.327(10) 0.2727(15)
C152 C 0.181(5) 0.365(9) 0.2816(11)
H15C H 0.2029 0.3747 0.2815
C153 C 0.164(7) 0.339(11) 0.2773(13)
C154 C 0.132(6) 0.326(9) 0.2776(10)
H15D H 0.1200 0.3089 0.2747
C155 C 0.118(5) 0.337(9) 0.2821(11)
H15E H 0.0964 0.3272 0.2821
C156 C 0.135(7) 0.361(11) 0.2865(13)
C157 C 0.167(6) 0.375(9) 0.2862(10)
H15F H 0.1793 0.3923 0.2890
C158 C 0.121(8) 0.372(13) 0.2916(15)
C159 C 0.225(7) 0.292(11) 0.2597(15)
C174 C 0.207(5) 0.329(8) 0.2747(11)
H17C H 0.2161 0.3381 0.2790
Zn1 Zn -0.203(4) 0.055(3) 0.1370(7)
Zn2 Zn -0.264(4) 0.025(3) 0.1456(5)
Zn3 Zn -0.266(4) 0.028(3) 0.1294(5)
Zn4 Zn -0.247(4) -0.016(2) 0.1364(6)
Zn5 Zn -0.222(4) 0.032(3) 0.2519(8)
Zn6 Zn -0.285(4) -0.009(3) 0.2573(6)
Zn7 Zn -0.255(4) -0.034(3) 0.2480(7)
Zn8 Zn -0.275(4) 0.008(3) 0.2423(6)
Zn9 Zn -0.403(4) -0.044(3) 0.0213(5)
Zn10 Zn -0.461(4) -0.074(3) 0.0297(7)
Zn11 Zn -0.418(3) -0.100(2) 0.0300(6)
Zn12 Zn -0.400(4) -0.039(3) 0.0369(5)
O1A O -0.2450(23) 0.0234(16) 0.1371(3)
O1B O -0.2596(24) -0.0005(16) 0.2499(4)
O1C O -0.4207(23) -0.0638(17) 0.0295(3)
O1 O -0.196(5) 0.080(3) 0.1297(10)
O2 O -0.265(4) -0.038(3) 0.1439(10)
O3 O -0.276(6) -0.008(5) 0.1503(7)
O4 O -0.240(5) 0.063(4) 0.1245(7)
O5 O -0.267(4) -0.035(3) 0.1289(10)
O9 O -0.304(6) -0.342(4) 0.1895(9)
O10 O -0.285(6) -0.019(4) 0.2359(7)
O11 O -0.269(5) -0.049(3) 0.2399(9)
O12 O -0.325(6) -0.349(4) 0.0886(8)
O13 O -0.340(6) -0.356(4) 0.0777(9)
O14 O -0.083(5) 0.288(4) 0.0944(7)
O15 O -0.123(4) 0.269(3) 0.0874(9)
O18 O -0.064(6) 0.326(5) -0.0163(7)
O19 O -0.104(4) 0.296(3) -0.0225(10)
O21 O -0.302(5) -0.338(4) 0.2009(10)
O22 O -0.279(6) -0.003(5) 0.1239(8)
O23 O -0.397(4) -0.100(3) 0.0373(10)
O24 O -0.385(6) -0.056(4) 0.0425(7)
O25 O -0.369(5) -0.004(4) 0.0342(10)
O26 O -0.065(5) 0.316(4) 0.0689(7)
O27 O -0.112(4) 0.285(3) 0.0728(9)
O28 O -0.371(5) -0.008(4) 0.0228(9)
C1 C -0.212(9) 0.082(7) 0.1250(15)
C4 C -0.290(9) -0.058(6) 0.2286(16)
C5 C -0.332(10) -0.340(7) 0.0832(18)
C6 C -0.109(9) 0.267(7) 0.0928(15)
C7 C -0.357(8) 0.007(7) 0.028(2)
C8 C -0.088(9) 0.301(8) -0.0171(16)
C10 C -0.276(11) -0.033(8) 0.1494(16)
C11 C -0.290(9) -0.056(6) 0.1549(15)
C12 C -0.291(6) -0.097(4) 0.1615(13)
H12A H -0.2864 -0.1124 0.1621
C13 C -0.282(8) -0.079(5) 0.1557(11)
H13A H -0.2704 -0.0812 0.1522
C14 C -0.322(10) -0.135(7) 0.1851(15)
C15 C -0.322(7) -0.120(5) 0.1911(16)
H15A H -0.3221 -0.1008 0.1909
C16 C -0.321(9) -0.132(7) 0.1976(16)
C17 C -0.322(8) -0.160(6) 0.1979(13)
H17A H -0.3214 -0.1678 0.2023
C18 C -0.322(8) -0.175(6) 0.1919(17)
C19 C -0.323(8) -0.163(6) 0.1855(13)
H19A H -0.3230 -0.1728 0.1814
C20 C -0.309(8) -0.247(6) 0.1933(16)
C21 C -0.308(7) -0.262(5) 0.1873(12)
H21A H -0.3087 -0.2539 0.1829
C22 C -0.304(7) -0.287(5) 0.1879(12)
H22A H -0.3030 -0.2968 0.1838
C23 C -0.303(8) -0.299(6) 0.1944(16)
C24 C -0.303(7) -0.283(5) 0.2003(12)
H24A H -0.3023 -0.2903 0.2048
C25 C -0.307(7) -0.258(5) 0.1998(12)
H25A H -0.3081 -0.2474 0.2038
C26 C -0.303(10) -0.328(7) 0.195(2)
C27 C -0.306(9) -0.088(6) 0.2159(15)
C28 C -0.303(6) -0.049(4) 0.2234(13)
H28A H -0.3076 -0.0327 0.2242
C29 C -0.311(7) -0.064(5) 0.2171(12)
H29A H -0.3207 -0.0578 0.2136
C30 C -0.309(6) -0.054(4) 0.1598(13)
H30A H -0.3155 -0.0387 0.1591
C31 C -0.318(8) -0.072(5) 0.1656(12)
H31A H -0.3315 -0.0700 0.1689
C32 C -0.310(9) -0.094(5) 0.1665(15)
C33 C -0.318(7) -0.116(5) 0.2038(14)
C34 C -0.313(7) -0.103(5) 0.2093(15)
C35 C -0.314(8) -0.222(6) 0.1927(10)
C36 C -0.318(8) -0.201(6) 0.1923(10)
C37 C -0.315(7) -0.109(5) 0.1730(15)
C38 C -0.319(7) -0.121(5) 0.1785(14)
C39 C -0.294(6) -0.098(4) 0.2210(13)
H39A H -0.2908 -0.1143 0.2202
C40 C -0.286(7) -0.083(5) 0.2274(12)
H40A H -0.2775 -0.0892 0.2309
C41 C -0.279(11) -0.028(7) 0.1240(16)
C42 C -0.292(9) -0.049(6) 0.1182(15)
C43 C -0.299(6) -0.094(4) 0.1121(14)
H43A H -0.2984 -0.1119 0.1120
C44 C -0.291(7) -0.076(5) 0.1180(11)
H44A H -0.2845 -0.0821 0.1219
C45 C -0.316(10) -0.128(7) 0.0882(16)
C46 C -0.318(7) -0.115(5) 0.0820(16)
H46A H -0.3186 -0.0962 0.0820
C47 C -0.320(10) -0.130(7) 0.0758(16)
C48 C -0.319(8) -0.157(6) 0.0759(13)
H48A H -0.3204 -0.1669 0.0717
C49 C -0.318(8) -0.170(6) 0.0821(17)
C50 C -0.316(8) -0.155(6) 0.0883(13)
H50A H -0.3145 -0.1632 0.0926
C51 C -0.323(8) -0.252(6) 0.0826(16)
C52 C -0.318(7) -0.263(5) 0.0887(12)
H52A H -0.3113 -0.2498 0.0927
C53 C -0.321(8) -0.292(6) 0.0889(12)
H53A H -0.3164 -0.2983 0.0931
C54 C -0.330(9) -0.310(7) 0.0831(16)
C55 C -0.337(7) -0.300(5) 0.0770(12)
H55A H -0.3434 -0.3118 0.0730
C56 C -0.334(8) -0.271(6) 0.0768(12)
H56A H -0.3382 -0.2633 0.0727
C57 C -0.340(9) -0.101(7) 0.0584(14)
C58 C -0.353(7) -0.066(5) 0.0530(13)
H58A H -0.3528 -0.0468 0.0529
C59 C -0.339(8) -0.073(5) 0.0583(11)
H59A H -0.3303 -0.0589 0.0620
C60 C -0.303(7) -0.041(5) 0.1124(13)
H60A H -0.3063 -0.0236 0.1126
C61 C -0.312(7) -0.059(5) 0.1065(11)
H61A H -0.3201 -0.0535 0.1026
C62 C -0.309(9) -0.085(6) 0.1063(15)
C63 C -0.325(7) -0.119(5) 0.0695(14)
C64 C -0.331(7) -0.110(5) 0.0643(14)
C65 C -0.321(9) -0.223(7) 0.0824(10)
C66 C -0.318(9) -0.198(7) 0.0823(10)
C67 C -0.313(7) -0.101(5) 0.0999(14)
C68 C -0.315(7) -0.113(5) 0.0946(14)
C69 C -0.354(7) -0.122(5) 0.0530(13)
H69A H -0.3545 -0.1402 0.0529
C70 C -0.368(8) -0.115(5) 0.0475(11)
H70A H -0.3771 -0.1283 0.0438
C71 C -0.368(9) -0.087(6) 0.0476(15)
C72 C -0.384(11) -0.081(8) 0.0421(15)
C73 C -0.092(9) 0.293(7) 0.0681(17)
C74 C -0.099(8) 0.276(6) 0.0616(16)
C75 C -0.135(6) 0.235(4) 0.0542(13)
H75A H -0.1550 0.2182 0.0534
C76 C -0.129(6) 0.250(5) 0.0604(12)
H76A H -0.1436 0.2440 0.0640
C77 C -0.142(7) 0.200(6) 0.0308(16)
C78 C -0.129(6) 0.212(5) 0.0244(16)
H78A H -0.1104 0.2310 0.0241
C79 C -0.145(8) 0.197(7) 0.0183(15)
C80 C -0.172(7) 0.170(6) 0.0187(13)
H80A H -0.1827 0.1601 0.0146
C81 C -0.185(7) 0.158(6) 0.0251(17)
C82 C -0.170(7) 0.173(6) 0.0312(13)
H82A H -0.1788 0.1649 0.0355
C83 C -0.270(7) 0.087(6) 0.0266(16)
C84 C -0.283(6) 0.076(5) 0.0331(12)
H84A H -0.2725 0.0864 0.0372
C85 C -0.312(6) 0.051(5) 0.0337(12)
H85A H -0.3213 0.0437 0.0381
C86 C -0.329(7) 0.036(6) 0.0277(16)
C87 C -0.317(6) 0.047(5) 0.0212(12)
H87A H -0.3280 0.0381 0.0172
C88 C -0.287(6) 0.073(5) 0.0207(12)
H88A H -0.2793 0.0808 0.0163
C89 C -0.116(8) 0.240(6) -0.0001(15)
C90 C -0.076(6) 0.282(4) -0.0065(13)
H90A H -0.0557 0.2977 -0.0070
C91 C -0.085(6) 0.263(5) -0.0008(11)
H91A H -0.0709 0.2656 0.0026
C92 C -0.077(6) 0.285(4) 0.0564(13)
H92A H -0.0576 0.3022 0.0571
C93 C -0.084(6) 0.270(5) 0.0501(12)
H93A H -0.0693 0.2763 0.0466
C94 C -0.113(7) 0.245(6) 0.0490(15)
C95 C -0.134(6) 0.211(5) 0.0118(14)
C96 C -0.125(6) 0.224(5) 0.0063(15)
C97 C -0.240(7) 0.112(6) 0.0260(10)
C98 C -0.215(7) 0.133(6) 0.0256(11)
C99 C -0.121(6) 0.230(5) 0.0424(15)
C100 C -0.129(6) 0.217(5) 0.0370(14)
C101 C -0.136(6) 0.236(4) -0.0052(13)
H10A H -0.1575 0.2199 -0.0048
C102 C -0.127(6) 0.255(5) -0.0110(11)
H10B H -0.1422 0.2518 -0.0145
C103 C -0.097(8) 0.279(6) -0.0116(15)
C135 C -0.151(7) 0.152(5) 0.1151(11)
H13D H -0.1306 0.1639 0.1150
C136 C -0.166(6) 0.127(5) 0.1197(10)
H13E H -0.1538 0.1227 0.1226
C137 C -0.198(8) 0.108(6) 0.1199(13)
C138 C -0.215(7) 0.115(5) 0.1155(11)
H13F H -0.2370 0.1029 0.1155
C139 C -0.201(6) 0.140(5) 0.1109(10)
H13G H -0.2139 0.1447 0.1080
C140 C -0.169(8) 0.159(6) 0.1107(13)
C141 C -0.126(7) 0.213(6) 0.1080(11)
H14A H -0.1180 0.2133 0.1123
C142 C -0.154(9) 0.187(7) 0.1061(15)
C143 C -0.167(6) 0.187(5) 0.0996(13)
H14B H -0.1855 0.1705 0.0982
C144 C -0.152(7) 0.213(6) 0.0953(11)
H14C H -0.1616 0.2134 0.0910
C145 C -0.125(9) 0.239(7) 0.0973(15)
C146 C -0.112(6) 0.238(5) 0.1037(13)
H14D H -0.0939 0.2557 0.1051
C173 C -0.280(11) -0.041(7) 0.2352(17)
O16 O -0.297(6) -0.046(5) 0.2613(7)
O17 O -0.275(5) -0.064(4) 0.2544(9)
O32 O -0.390(6) -0.253(5) 0.2963(10)
O33 O -0.363(6) -0.271(5) 0.2911(7)
C147 C -0.318(8) -0.096(6) 0.2704(13)
H14E H -0.3199 -0.0793 0.2719
C148 C -0.304(10) -0.095(8) 0.2641(15)
C149 C -0.302(8) -0.120(6) 0.2621(11)
H14F H -0.2930 -0.1203 0.2578
C150 C -0.314(7) -0.147(6) 0.2663(13)
H15B H -0.3121 -0.1635 0.2648
C151 C -0.327(10) -0.147(8) 0.2727(15)
C152 C -0.365(9) -0.184(7) 0.2816(11)
H15C H -0.3747 -0.1718 0.2815
C153 C -0.339(11) -0.175(9) 0.2773(13)
C154 C -0.326(9) -0.194(7) 0.2776(10)
H15D H -0.3089 -0.1889 0.2747
C155 C -0.337(9) -0.219(7) 0.2821(11)
H15E H -0.3272 -0.2308 0.2821
C156 C -0.361(11) -0.226(9) 0.2865(13)
C157 C -0.375(9) -0.208(7) 0.2862(10)
H15F H -0.3923 -0.2130 0.2890
C158 C -0.372(13) -0.251(10) 0.2916(15)
C159 C -0.292(11) -0.067(9) 0.2597(15)
C174 C -0.329(8) -0.122(6) 0.2747(11)
H17C H -0.3381 -0.1220 0.2790
Zn1 Zn 0.870(4) 0.278(3) 0.1963(7)
Zn1 Zn 0.945(3) 0.741(3) 0.1370(7)
Zn2 Zn -0.308(3) -0.377(3) 0.1877(5)
Zn2 Zn -0.025(3) 0.710(3) 0.1456(5)
Zn2 Zn 0.975(3) 0.710(3) 0.1456(5)
Zn2 Zn 0.736(4) 0.025(3) 0.1456(5)
Zn3 Zn -0.305(3) -0.372(3) 0.2039(5)
Zn3 Zn -0.028(3) 0.705(3) 0.1294(5)
Zn3 Zn 0.734(4) 0.028(3) 0.1294(5)
Zn4 Zn 0.914(4) 0.349(2) 0.1969(6)
Zn5 Zn -0.301(3) -0.412(3) 0.0814(8)
Zn5 Zn 0.889(4) 0.301(3) 0.0814(8)
Zn5 Zn 0.968(3) 0.745(3) 0.2519(8)
Zn6 Zn -0.342(3) -0.390(3) 0.0760(6)
Zn6 Zn 0.009(3) 0.723(3) 0.2573(6)
Zn6 Zn 1.009(3) 0.723(3) 0.2573(6)
Zn6 Zn 0.715(4) -0.009(3) 0.2573(6)
Zn7 Zn 0.922(4) 0.367(3) 0.0853(7)
Zn8 Zn -0.325(3) -0.383(3) 0.0910(6)
Zn8 Zn -0.008(3) 0.716(3) 0.2423(6)
Zn8 Zn 0.992(3) 0.716(3) 0.2423(6)
Zn8 Zn 0.725(4) 0.008(3) 0.2423(6)
Zn9 Zn -0.044(3) 0.360(3) -0.0213(5)
Zn9 Zn -0.360(3) -0.403(4) -0.0213(5)
Zn9 Zn 0.403(4) 0.044(3) -0.0213(5)
Zn9 Zn -0.290(3) -0.026(3) 0.3547(5)
Zn9 Zn 0.710(3) 0.974(3) 0.3547(5)
Zn9 Zn 0.026(3) -0.263(4) 0.3547(5)
Zn9 Zn 1.026(3) 0.737(4) 0.3547(5)
Zn9 Zn 0.263(4) 0.290(3) 0.3547(5)
Zn10 Zn -0.407(3) -0.279(3) 0.3036(7)
Zn10 Zn 0.279(3) 0.872(4) 0.3036(7)
Zn10 Zn 0.074(3) 0.612(3) 0.0297(7)
Zn10 Zn 0.388(3) -0.539(4) 0.0297(7)
Zn10 Zn 0.539(4) -0.074(3) 0.0297(7)
Zn10 Zn 0.740(3) 0.946(3) 0.3631(7)
Zn10 Zn 0.054(3) -0.205(4) 0.3631(7)
Zn10 Zn 0.205(4) 0.260(3) 0.3631(7)
Zn11 Zn 0.348(2) 0.915(3) 0.3033(6)
Zn11 Zn -0.100(2) 0.319(2) -0.0300(6)
Zn11 Zn -0.319(2) -0.418(3) -0.0300(6)
Zn11 Zn 0.418(3) 0.100(2) -0.0300(6)
Zn11 Zn 0.319(2) -0.582(3) 0.0300(6)
Zn11 Zn 0.582(3) -0.100(2) 0.0300(6)
Zn11 Zn -0.234(2) 0.015(2) 0.3634(6)
Zn11 Zn 0.985(2) 0.752(3) 0.3634(6)
Zn11 Zn 0.248(3) 0.234(2) 0.3634(6)
Zn12 Zn -0.372(3) -0.305(3) 0.2964(5)
Zn12 Zn 0.039(3) 0.638(3) 0.0369(5)
Zn12 Zn 0.600(4) -0.039(3) 0.0369(5)
O6 O -0.078(3) -0.273(3) 0.1446(10)
O7 O -0.155(7) 0.293(5) 0.1969(7)
O8 O -0.123(5) 0.344(4) 0.1974(7)
O9 O -0.296(4) 0.029(6) 0.1438(9)
O9 O -0.029(6) -0.325(4) 0.1438(9)
O9 O 0.696(6) 0.658(4) 0.1895(9)
O12 O -0.310(4) 0.008(6) 0.2447(8)
O12 O -0.008(6) -0.318(4) 0.2447(8)
O12 O 0.675(6) 0.651(4) 0.0886(8)
O13 O -0.318(4) -0.007(6) 0.2556(9)
O13 O 0.007(6) -0.311(4) 0.2556(9)
O13 O 0.660(6) 0.644(4) 0.0777(9)
O14 O -0.045(4) -0.295(3) 0.2389(7)
O14 O 0.712(4) 0.628(3) 0.0944(7)
O15 O -0.064(3) -0.274(3) 0.2459(9)
O15 O 0.731(3) 0.607(3) 0.0874(9)
O18 O 0.326(5) 0.391(3) 0.0163(7)
O18 O -0.391(3) -0.064(6) 0.0163(7)
O18 O 0.064(6) -0.326(5) 0.0163(7)
O18 O 0.340(5) -0.057(3) 0.3171(7)
O18 O 0.057(3) 0.398(6) 0.3171(7)
O18 O 0.602(6) 0.660(5) 0.3171(7)
O19 O 0.296(3) 0.401(3) 0.0225(10)
O19 O -0.401(3) -0.104(4) 0.0225(10)
O19 O 0.104(4) -0.296(3) 0.0225(10)
O19 O 0.370(3) -0.067(3) 0.3109(10)
O19 O 0.067(3) 0.438(4) 0.3109(10)
O19 O 0.562(4) 0.630(3) 0.3109(10)
O20 O 0.344(4) -0.122(5) 0.3026(7)
O20 O 0.323(4) 0.455(5) 0.0307(7)
O20 O -0.455(5) -0.133(3) 0.0307(7)
O21 O -0.298(3) 0.031(5) 0.1324(10)
O21 O -0.031(5) -0.329(4) 0.1324(10)
O21 O 0.698(5) 0.662(4) 0.2009(10)
O26 O -0.017(4) -0.285(3) 0.2644(7)
O26 O 0.684(4) 0.618(3) 0.0689(7)
O27 O -0.048(3) -0.269(3) 0.2605(9)
O27 O 0.715(3) 0.602(3) 0.0728(9)
O31 O 0.294(5) -0.153(7) 0.3031(7)
O31 O 0.373(5) 0.486(7) 0.0302(7)
O31 O -0.486(7) -0.114(5) 0.0302(7)
O34 O -0.057(4) -0.296(3) 0.1505(7)
O29 O -0.141(6) 0.309(4) 0.0814(6)
O30 O -0.116(5) 0.358(4) 0.0846(6)
O32 O -0.470(3) -0.057(6) 0.0370(10)
O32 O 0.057(6) -0.414(5) 0.0370(10)
O32 O 0.610(6) 0.747(5) 0.2963(10)
O33 O -0.425(4) -0.030(6) 0.0422(7)
O33 O 0.030(6) -0.396(5) 0.0422(7)
O33 O 0.637(6) 0.729(5) 0.2911(7)
O35 O 0.059(4) -0.412(3) 0.0222(10)
O35 O 0.412(3) 0.472(5) 0.0222(10)
O35 O -0.472(5) -0.059(4) 0.0222(10)
O36 O 0.037(6) -0.391(4) 0.0163(7)
O36 O 0.391(4) 0.429(7) 0.0163(7)
O36 O -0.429(7) -0.037(6) 0.0163(7)

#END
