
#######################################################################
#
#                 Cambridge Crystallographic Data Centre
#                                CCDC 
#
#######################################################################
#
# If this CIF has been generated from an entry in the Cambridge 
# Structural Database, then it will include bibliographic, chemical, 
# crystal, experimental, refinement or atomic coordinate data resulting 
# from the CCDC's data processing and validation procedures.
#
#######################################################################

data_1
_symmetry_cell_setting           tetragonal
_symmetry_space_group_name_H-M   'I 41 2 2'
_symmetry_Int_Tables_number      98
_space_group_name_Hall           'I 4bw 2bw'
loop_
_symmetry_equiv_pos_site_id
_symmetry_equiv_pos_as_xyz
1 x,y,z
2 -y,1/2+x,1/4+z
3 1/2-x,1/2-y,1/2+z
4 1/2+y,-x,3/4+z
5 x,1/2-y,1/4-z
6 1/2+y,1/2+x,1/2-z
7 1/2-x,y,3/4-z
8 -y,-x,-z
9 1/2+x,1/2+y,1/2+z
10 1/2-y,x,3/4+z
11 -x,-y,z
12 y,1/2-x,1/4+z
13 1/2+x,-y,3/4-z
14 y,x,-z
15 -x,1/2+y,1/4-z
16 1/2-y,1/2-x,1/2-z
_cell_length_a                   15.347(5)
_cell_length_b                   15.347(5)
_cell_length_c                   12.3845(5)
_cell_angle_alpha                90.00
_cell_angle_beta                 90.00
_cell_angle_gamma                90.00
_cell_volume                     2916.93
loop_
_atom_site_label
_atom_site_type_symbol
_atom_site_fract_x
_atom_site_fract_y
_atom_site_fract_z
Sc1 Sc 0.81278(2) 0.18722(2) 0.0000
O1 O 0.71101(9) 0.09497(9) 0.00761(13)
O2 O 0.62281(11) 0.10693(11) -0.13607(11)
O3 O 0.7500 0.24796(15) -0.1250
C1 C 0.63912(15) 0.08314(15) -0.04020(17)
C2 C 0.5000 0.0000 0.1890(2)
C3 C 0.5000 0.0000 -0.0369(2)
H3 H 0.5000 0.0000 -0.1136
C11 C 0.56916(15) 0.03608(15) 0.13267(18)
H11 H 0.6172 0.0599 0.1711
C12 C 0.56888(15) 0.03775(15) 0.01954(18)
O1 O 0.59497(9) 0.21101(9) 0.49239(13)
O2 O 0.60693(11) 0.12281(11) 0.63607(11)
C1 C 0.58314(15) 0.13912(15) 0.54020(17)
C2 C 0.5000 0.0000 0.3110(2)
C3 C 0.5000 0.0000 0.5369(2)
H3 H 0.5000 0.0000 0.6136
C11 C 0.53608(15) 0.06916(15) 0.36733(18)
H11 H 0.5599 0.1172 0.3289
C12 C 0.53775(15) 0.06888(15) 0.48046(18)
O1 O 0.28899(9) -0.09497(9) 0.00761(13)
O2 O 0.37719(11) -0.10693(11) -0.13607(11)
C1 C 0.36088(15) -0.08314(15) -0.04020(17)
C11 C 0.43084(15) -0.03608(15) 0.13267(18)
H11 H 0.3828 -0.0599 0.1711
C12 C 0.43112(15) -0.03775(15) 0.01954(18)
O1 O 0.40503(9) -0.21101(9) 0.49239(13)
O2 O 0.39307(11) -0.12281(11) 0.63607(11)
C1 C 0.41686(15) -0.13912(15) 0.54020(17)
C11 C 0.46392(15) -0.06916(15) 0.36733(18)
H11 H 0.4401 -0.1172 0.3289
C12 C 0.46225(15) -0.06888(15) 0.48046(18)
Sc1 Sc 0.68722(2) 0.31278(2) 0.5000
O3 O 0.74796(15) 0.2500 0.6250
Sc1 Sc 0.68722(2) 0.18722(2) -0.2500
Sc1 Sc 0.68722(2) 0.18722(2) 0.7500
Sc1 Sc 0.31278(2) -0.31278(2) 0.5000
Sc1 Sc 0.31278(2) -0.18722(2) -0.2500
Sc1 Sc 0.31278(2) -0.18722(2) 0.7500
Sc1 Sc 0.18722(2) -0.18722(2) 0.0000
O1 O 0.78899(9) 0.40503(9) 0.50761(13)
O1 O 0.90503(9) 0.28899(9) -0.00761(13)
O2 O 0.89307(11) 0.12281(11) 0.11393(11)
O2 O 0.60693(11) 0.37719(11) 0.61393(11)
O2 O 0.62281(11) 0.39307(11) 0.38607(11)
O2 O 0.87719(11) 0.10693(11) -0.11393(11)
O3 O 0.75204(15) 0.2500 0.1250
O3 O 0.7500 0.25204(15) 0.3750
Sc1 Sc 0.81278(2) 0.31278(2) 0.2500
O1 O 0.90503(9) 0.21101(9) 0.25761(13)
C1 C 0.91686(15) 0.13912(15) 0.20980(17)
C2 C 1.0000 0.0000 0.4390(2)
C3 C 1.0000 0.0000 0.2131(2)
H3 H 1.0000 0.0000 0.1364
C11 C 0.96392(15) 0.06916(15) 0.38267(18)
H11 H 0.9401 0.1172 0.4211
C12 C 0.96225(15) 0.06888(15) 0.26954(18)
O1 O 0.78899(9) 0.09497(9) 0.74239(13)
O2 O 0.87719(11) 0.10693(11) 0.88607(11)
C1 C 0.86088(15) 0.08314(15) 0.79020(17)
C2 C 1.0000 0.0000 0.5610(2)
C3 C 1.0000 0.0000 0.7869(2)
H3 H 1.0000 0.0000 0.8636
C11 C 0.93084(15) 0.03608(15) 0.61733(18)
H11 H 0.8828 0.0599 0.5789
C12 C 0.93112(15) 0.03775(15) 0.73046(18)
O1 O 1.09497(9) -0.21101(9) 0.25761(13)
O2 O 1.10693(11) -0.12281(11) 0.11393(11)
C1 C 1.08314(15) -0.13912(15) 0.20980(17)
C11 C 1.03608(15) -0.06916(15) 0.38267(18)
H11 H 1.0599 -0.1172 0.4211
C12 C 1.03775(15) -0.06888(15) 0.26954(18)
O1 O 1.21101(9) -0.09497(9) 0.74239(13)
O2 O 1.12281(11) -0.10693(11) 0.88607(11)
C1 C 1.13912(15) -0.08314(15) 0.79020(17)
C11 C 1.06916(15) -0.03608(15) 0.61733(18)
H11 H 1.1172 -0.0599 0.5789
C12 C 1.06888(15) -0.03775(15) 0.73046(18)
O3 O 0.7500 0.24796(15) 0.8750
Sc1 Sc 0.81278(2) 0.18722(2) 1.0000
Sc1 Sc 1.31278(2) -0.18722(2) 0.7500
Sc1 Sc 1.18722(2) -0.18722(2) 0.0000
Sc1 Sc 1.18722(2) -0.18722(2) 1.0000
Sc1 Sc 1.18722(2) -0.31278(2) 0.2500
O1 O 0.59497(9) 0.28899(9) 0.75761(13)
O1 O 0.71101(9) 0.40503(9) 0.24239(13)
O2 O 0.87719(11) 0.39307(11) 0.36393(11)
O2 O 0.62281(11) 0.10693(11) 0.86393(11)
O2 O 0.89307(11) 0.37719(11) 0.13607(11)
C1 C 0.86088(15) 0.41686(15) 0.45980(17)
C2 C 1.0000 0.5000 0.6890(2)
C3 C 1.0000 0.5000 0.4631(2)
H3 H 1.0000 0.5000 0.3864
C11 C 0.93084(15) 0.46392(15) 0.63267(18)
H11 H 0.8828 0.4401 0.6711
C12 C 0.93112(15) 0.46225(15) 0.51954(18)
O1 O 0.90503(9) 0.28899(9) 0.99239(13)
O2 O 0.89307(11) 0.37719(11) 1.13607(11)
C1 C 0.91686(15) 0.36088(15) 1.04020(17)
C2 C 1.0000 0.5000 0.8110(2)
C3 C 1.0000 0.5000 1.0369(2)
H3 H 1.0000 0.5000 1.1136
C11 C 0.96392(15) 0.43084(15) 0.86733(18)
H11 H 0.9401 0.3828 0.8289
C12 C 0.96225(15) 0.43112(15) 0.98046(18)
O1 O 1.21101(9) 0.59497(9) 0.50761(13)
O2 O 1.12281(11) 0.60693(11) 0.36393(11)
C1 C 1.13912(15) 0.58314(15) 0.45980(17)
C11 C 1.06916(15) 0.53608(15) 0.63267(18)
H11 H 1.1172 0.5599 0.6711
C12 C 1.06888(15) 0.53775(15) 0.51954(18)
O1 O 1.09497(9) 0.71101(9) 0.99239(13)
O2 O 1.10693(11) 0.62281(11) 1.13607(11)
C1 C 1.08314(15) 0.63912(15) 1.04020(17)
C11 C 1.03608(15) 0.56916(15) 0.86733(18)
H11 H 1.0599 0.6172 0.8289
C12 C 1.03775(15) 0.56888(15) 0.98046(18)
O3 O 0.75204(15) 0.2500 1.1250
Sc1 Sc 0.81278(2) 0.31278(2) 1.2500
Sc1 Sc 1.18722(2) 0.81278(2) 1.0000
Sc1 Sc 1.18722(2) 0.68722(2) 0.2500
Sc1 Sc 1.18722(2) 0.68722(2) 1.2500
Sc1 Sc 1.31278(2) 0.68722(2) 0.5000
O1 O 0.71101(9) 0.09497(9) 1.00761(13)
O2 O 0.89307(11) 0.12281(11) 1.11393(11)
O1 O 0.59497(9) 0.28899(9) -0.24239(13)
O2 O 0.60693(11) 0.37719(11) -0.38607(11)
O3 O 0.74796(15) 0.2500 -0.3750
C1 C 0.58314(15) 0.36088(15) -0.29020(17)
C2 C 0.5000 0.5000 -0.0610(2)
C3 C 0.5000 0.5000 -0.2869(2)
H3 H 0.5000 0.5000 -0.3636
C11 C 0.53608(15) 0.43084(15) -0.11733(18)
H11 H 0.5599 0.3828 -0.0789
C12 C 0.53775(15) 0.43112(15) -0.23046(18)
C1 C 0.63912(15) 0.41686(15) 0.29020(17)
C2 C 0.5000 0.5000 0.0610(2)
C3 C 0.5000 0.5000 0.2869(2)
H3 H 0.5000 0.5000 0.3636
C11 C 0.56916(15) 0.46392(15) 0.11733(18)
H11 H 0.6172 0.4401 0.0789
C12 C 0.56888(15) 0.46225(15) 0.23046(18)
O1 O 0.40503(9) 0.71101(9) -0.24239(13)
O2 O 0.39307(11) 0.62281(11) -0.38607(11)
C1 C 0.41686(15) 0.63912(15) -0.29020(17)
C11 C 0.46392(15) 0.56916(15) -0.11733(18)
H11 H 0.4401 0.6172 -0.0789
C12 C 0.46225(15) 0.56888(15) -0.23046(18)
O1 O 0.28899(9) 0.59497(9) 0.24239(13)
O2 O 0.37719(11) 0.60693(11) 0.38607(11)
C1 C 0.36088(15) 0.58314(15) 0.29020(17)
C11 C 0.43084(15) 0.53608(15) 0.11733(18)
H11 H 0.3828 0.5599 0.0789
C12 C 0.43112(15) 0.53775(15) 0.23046(18)
Sc1 Sc 0.68722(2) 0.31278(2) -0.5000
Sc1 Sc 0.18722(2) 0.68722(2) 0.2500
Sc1 Sc 0.31278(2) 0.68722(2) -0.5000
Sc1 Sc 0.31278(2) 0.68722(2) 0.5000
Sc1 Sc 0.31278(2) 0.81278(2) -0.2500
O1 O 0.78899(9) 0.09497(9) -0.25761(13)
O2 O 0.60693(11) 0.12281(11) -0.36393(11)
C1 C 0.58314(15) 0.36088(15) 0.70980(17)
C2 C 0.5000 0.5000 0.9390(2)
C3 C 0.5000 0.5000 0.7131(2)
H3 H 0.5000 0.5000 0.6364
C11 C 0.53608(15) 0.43084(15) 0.88267(18)
H11 H 0.5599 0.3828 0.9211
C12 C 0.53775(15) 0.43112(15) 0.76954(18)
O1 O 0.71101(9) 0.40503(9) 1.24239(13)
O2 O 0.62281(11) 0.39307(11) 1.38607(11)
C1 C 0.63912(15) 0.41686(15) 1.29020(17)
C2 C 0.5000 0.5000 1.0610(2)
C3 C 0.5000 0.5000 1.2869(2)
H3 H 0.5000 0.5000 1.3636
C11 C 0.56916(15) 0.46392(15) 1.11733(18)
H11 H 0.6172 0.4401 1.0789
C12 C 0.56888(15) 0.46225(15) 1.23046(18)
O1 O 0.40503(9) 0.71101(9) 0.75761(13)
O2 O 0.39307(11) 0.62281(11) 0.61393(11)
C1 C 0.41686(15) 0.63912(15) 0.70980(17)
C11 C 0.46392(15) 0.56916(15) 0.88267(18)
H11 H 0.4401 0.6172 0.9211
C12 C 0.46225(15) 0.56888(15) 0.76954(18)
O1 O 0.28899(9) 0.59497(9) 1.24239(13)
O2 O 0.37719(11) 0.60693(11) 1.38607(11)
C1 C 0.36088(15) 0.58314(15) 1.29020(17)
C11 C 0.43084(15) 0.53608(15) 1.11733(18)
H11 H 0.3828 0.5599 1.0789
C12 C 0.43112(15) 0.53775(15) 1.23046(18)
O3 O 0.7500 0.25204(15) 1.3750
Sc1 Sc 0.68722(2) 0.31278(2) 1.5000
Sc1 Sc 0.18722(2) 0.68722(2) 1.2500
Sc1 Sc 0.31278(2) 0.68722(2) 1.5000
Sc1 Sc 0.31278(2) 0.81278(2) 0.7500
O1 O 0.90503(9) 0.21101(9) 1.25761(13)
O2 O 0.87719(11) 0.39307(11) 1.36393(11)
O1 O 0.21101(9) 0.59497(9) 0.50761(13)
O2 O 0.12281(11) 0.60693(11) 0.36393(11)
O3 O 0.2500 0.74796(15) 0.3750
C1 C 0.13912(15) 0.58314(15) 0.45980(17)
C2 C 0.0000 0.5000 0.6890(2)
C3 C 0.0000 0.5000 0.4631(2)
H3 H 0.0000 0.5000 0.3864
C11 C 0.06916(15) 0.53608(15) 0.63267(18)
H11 H 0.1172 0.5599 0.6711
C12 C 0.06888(15) 0.53775(15) 0.51954(18)
O1 O 0.09497(9) 0.71101(9) 0.99239(13)
O2 O 0.10693(11) 0.62281(11) 1.13607(11)
C1 C 0.08314(15) 0.63912(15) 1.04020(17)
C2 C 0.0000 0.5000 0.8110(2)
C3 C 0.0000 0.5000 1.0369(2)
H3 H 0.0000 0.5000 1.1136
C11 C 0.03608(15) 0.56916(15) 0.86733(18)
H11 H 0.0599 0.6172 0.8289
C12 C 0.03775(15) 0.56888(15) 0.98046(18)
O1 O -0.21101(9) 0.40503(9) 0.50761(13)
O2 O -0.12281(11) 0.39307(11) 0.36393(11)
C1 C -0.13912(15) 0.41686(15) 0.45980(17)
C11 C -0.06916(15) 0.46392(15) 0.63267(18)
H11 H -0.1172 0.4401 0.6711
C12 C -0.06888(15) 0.46225(15) 0.51954(18)
O1 O -0.09497(9) 0.28899(9) 0.99239(13)
O2 O -0.10693(11) 0.37719(11) 1.13607(11)
C1 C -0.08314(15) 0.36088(15) 1.04020(17)
C11 C -0.03608(15) 0.43084(15) 0.86733(18)
H11 H -0.0599 0.3828 0.8289
C12 C -0.03775(15) 0.43112(15) 0.98046(18)
Sc1 Sc 0.18722(2) 0.81278(2) 1.0000
O3 O 0.24796(15) 0.7500 1.1250
Sc1 Sc -0.18722(2) 0.18722(2) 1.0000
Sc1 Sc -0.18722(2) 0.31278(2) 0.2500
Sc1 Sc -0.18722(2) 0.31278(2) 1.2500
Sc1 Sc -0.31278(2) 0.31278(2) 0.5000
O1 O 0.28899(9) 0.90503(9) 1.00761(13)
O1 O 0.40503(9) 0.78899(9) 0.49239(13)
O2 O 0.10693(11) 0.87719(11) 1.11393(11)
O2 O 0.12281(11) 0.89307(11) 0.88607(11)
O3 O 0.25204(15) 0.7500 0.6250
O3 O 0.2500 0.75204(15) 0.8750
O3 O 0.25204(15) 0.7500 -0.3750
O1 O 0.09497(9) 0.78899(9) 0.25761(13)
O1 O 0.21101(9) 0.90503(9) -0.25761(13)
O2 O 0.37719(11) 0.89307(11) -0.13607(11)
O2 O 0.10693(11) 0.62281(11) 0.13607(11)
O2 O 0.39307(11) 0.87719(11) -0.36393(11)
O3 O 0.2500 0.75204(15) -0.1250
O3 O 0.24796(15) 0.7500 0.1250
O3 O 0.2500 0.74796(15) 1.3750
O1 O 0.09497(9) 0.78899(9) 1.25761(13)
O1 O 0.21101(9) 0.90503(9) 0.74239(13)
O2 O 0.37719(11) 0.89307(11) 0.86393(11)
O2 O 0.12281(11) 0.60693(11) 1.36393(11)
O2 O 0.39307(11) 0.87719(11) 0.63607(11)
Sc1 Sc 0.18722(2) 0.81278(2) 0.0000
O1 O 0.28899(9) 0.90503(9) 0.00761(13)
C1 C 0.36088(15) 0.91686(15) -0.04020(17)
C2 C 0.5000 1.0000 0.1890(2)
C3 C 0.5000 1.0000 -0.0369(2)
H3 H 0.5000 1.0000 -0.1136
C11 C 0.43084(15) 0.96392(15) 0.13267(18)
H11 H 0.3828 0.9401 0.1711
C12 C 0.43112(15) 0.96225(15) 0.01954(18)
C1 C 0.41686(15) 0.86088(15) 0.54020(17)
C2 C 0.5000 1.0000 0.3110(2)
C3 C 0.5000 1.0000 0.5369(2)
H3 H 0.5000 1.0000 0.6136
C11 C 0.46392(15) 0.93084(15) 0.36733(18)
H11 H 0.4401 0.8828 0.3289
C12 C 0.46225(15) 0.93112(15) 0.48046(18)
O1 O 0.71101(9) 1.09497(9) 0.00761(13)
O2 O 0.62281(11) 1.10693(11) -0.13607(11)
C1 C 0.63912(15) 1.08314(15) -0.04020(17)
C11 C 0.56916(15) 1.03608(15) 0.13267(18)
H11 H 0.6172 1.0599 0.1711
C12 C 0.56888(15) 1.03775(15) 0.01954(18)
O1 O 0.59497(9) 1.21101(9) 0.49239(13)
O2 O 0.60693(11) 1.12281(11) 0.63607(11)
C1 C 0.58314(15) 1.13912(15) 0.54020(17)
C11 C 0.53608(15) 1.06916(15) 0.36733(18)
H11 H 0.5599 1.1172 0.3289
C12 C 0.53775(15) 1.06888(15) 0.48046(18)
Sc1 Sc 0.68722(2) 1.31278(2) 0.5000
Sc1 Sc 0.68722(2) 1.18722(2) -0.2500
Sc1 Sc 0.68722(2) 1.18722(2) 0.7500
Sc1 Sc 0.81278(2) 1.18722(2) 0.0000
O1 O 0.09497(9) 0.71101(9) -0.00761(13)
O2 O 0.10693(11) 0.87719(11) 0.11393(11)
O2 O 0.12281(11) 0.89307(11) -0.11393(11)
C1 C 0.08314(15) 0.86088(15) 0.20980(17)
C2 C 0.0000 1.0000 0.4390(2)
C3 C 0.0000 1.0000 0.2131(2)
H3 H 0.0000 1.0000 0.1364
C11 C 0.03608(15) 0.93084(15) 0.38267(18)
H11 H 0.0599 0.8828 0.4211
C12 C 0.03775(15) 0.93112(15) 0.26954(18)
C1 C 0.13912(15) 0.91686(15) 0.79020(17)
C2 C 0.0000 1.0000 0.5610(2)
C3 C 0.0000 1.0000 0.7869(2)
H3 H 0.0000 1.0000 0.8636
C11 C 0.06916(15) 0.96392(15) 0.61733(18)
H11 H 0.1172 0.9401 0.5789
C12 C 0.06888(15) 0.96225(15) 0.73046(18)
O1 O -0.09497(9) 1.21101(9) 0.25761(13)
O2 O -0.10693(11) 1.12281(11) 0.11393(11)
C1 C -0.08314(15) 1.13912(15) 0.20980(17)
C11 C -0.03608(15) 1.06916(15) 0.38267(18)
H11 H -0.0599 1.1172 0.4211
C12 C -0.03775(15) 1.06888(15) 0.26954(18)
O1 O -0.21101(9) 1.09497(9) 0.74239(13)
O2 O -0.12281(11) 1.10693(11) 0.88607(11)
C1 C -0.13912(15) 1.08314(15) 0.79020(17)
C11 C -0.06916(15) 1.03608(15) 0.61733(18)
H11 H -0.1172 1.0599 0.5789
C12 C -0.06888(15) 1.03775(15) 0.73046(18)
Sc1 Sc -0.31278(2) 1.18722(2) 0.7500
Sc1 Sc -0.18722(2) 1.18722(2) 0.0000
Sc1 Sc -0.18722(2) 1.18722(2) 1.0000
Sc1 Sc -0.18722(2) 1.31278(2) 0.2500

#END
