data_crystal
 
_cell_length_a    15.34700
_cell_length_b    15.34700
_cell_length_c    12.38450
_cell_angle_alpha 90.00000
_cell_angle_beta  90.00000
_cell_angle_gamma 90.00000
 
_symmetry_space_group_name_Hall 'P 1'
_symmetry_space_group_name_H-M  'P 1'
_symmetry_int_tables_number      1
 
loop_
_symmetry_equiv_pos_as_xyz
 'x,y,z' 
 
loop_
_atom_site_label
_atom_site_type_symbol
_atom_site_fract_x
_atom_site_fract_y
_atom_site_fract_z
Sc         Sc      0.81278   0.18722   0.00000 
Sc         Sc      0.81278   0.31278   0.25000 
Sc         Sc      0.68722   0.31278   0.50000 
Sc         Sc      0.68722   0.18722   0.75000 
Sc         Sc      0.31278   0.68722   0.50000 
Sc         Sc      0.31278   0.81278   0.75000 
Sc         Sc      0.18722   0.81278   0.00000 
Sc         Sc      0.18722   0.68722   0.25000 
O          O       0.71101   0.09497   0.00761 
O          O       0.90503   0.21101   0.25761 
O          O       0.78899   0.40503   0.50761 
O          O       0.59497   0.28899   0.75761 
O          O       0.71101   0.40503   0.24239 
O          O       0.59497   0.21101   0.49239 
O          O       0.78899   0.09497   0.74239 
O          O       0.90503   0.28899   0.99239 
O          O       0.21101   0.59497   0.50761 
O          O       0.40503   0.71101   0.75761 
O          O       0.28899   0.90503   0.00761 
O          O       0.09497   0.78899   0.25761 
O          O       0.21101   0.90503   0.74239 
O          O       0.09497   0.71101   0.99239 
O          O       0.28899   0.59497   0.24239 
O          O       0.40503   0.78899   0.49239 
O          O       0.62281   0.10693   0.86393 
O          O       0.89307   0.12281   0.11393 
O          O       0.87719   0.39307   0.36393 
O          O       0.60693   0.37719   0.61393 
O          O       0.62281   0.39307   0.38607 
O          O       0.60693   0.12281   0.63607 
O          O       0.87719   0.10693   0.88607 
O          O       0.89307   0.37719   0.13607 
O          O       0.12281   0.60693   0.36393 
O          O       0.39307   0.62281   0.61393 
O          O       0.37719   0.89307   0.86393 
O          O       0.10693   0.87719   0.11393 
O          O       0.12281   0.89307   0.88607 
O          O       0.10693   0.62281   0.13607 
O          O       0.37719   0.60693   0.38607 
O          O       0.39307   0.87719   0.63607 
O          O       0.75000   0.24796   0.87500 
O          O       0.75204   0.25000   0.12500 
O          O       0.75000   0.25204   0.37500 
O          O       0.74796   0.25000   0.62500 
O          O       0.25000   0.74796   0.37500 
O          O       0.25204   0.75000   0.62500 
O          O       0.25000   0.75204   0.87500 
O          O       0.24796   0.75000   0.12500 
C          C       0.63912   0.08314   0.95980 
C          C       0.91686   0.13912   0.20980 
C          C       0.86088   0.41686   0.45980 
C          C       0.58314   0.36088   0.70980 
C          C       0.63912   0.41686   0.29020 
C          C       0.58314   0.13912   0.54020 
C          C       0.86088   0.08314   0.79020 
C          C       0.91686   0.36088   0.04020 
C          C       0.13912   0.58314   0.45980 
C          C       0.41686   0.63912   0.70980 
C          C       0.36088   0.91686   0.95980 
C          C       0.08314   0.86088   0.20980 
C          C       0.13912   0.91686   0.79020 
C          C       0.08314   0.63912   0.04020 
C          C       0.36088   0.58314   0.29020 
C          C       0.41686   0.86088   0.54020 
C          C       0.50000   0.00000   0.18900 
C          C       0.00000   0.00000   0.43900 
C          C       0.00000   0.50000   0.68900 
C          C       0.50000   0.50000   0.93900 
C          C       0.50000   0.50000   0.06100 
C          C       0.50000   0.00000   0.31100 
C          C       0.00000   0.00000   0.56100 
C          C       0.00000   0.50000   0.81100 
C          C       0.50000   0.00000   0.96310 
C          C       0.00000   0.00000   0.21310 
C          C       0.00000   0.50000   0.46310 
C          C       0.50000   0.50000   0.71310 
C          C       0.50000   0.50000   0.28690 
C          C       0.50000   0.00000   0.53690 
C          C       0.00000   0.00000   0.78690 
C          C       0.00000   0.50000   0.03690 
H          H       0.50000   0.00000   0.88640 
H          H       0.00000   0.00000   0.13640 
H          H       0.00000   0.50000   0.38640 
H          H       0.50000   0.50000   0.63640 
H          H       0.50000   0.50000   0.36360 
H          H       0.50000   0.00000   0.61360 
H          H       0.00000   0.00000   0.86360 
H          H       0.00000   0.50000   0.11360 
C          C       0.56916   0.03608   0.13267 
C          C       0.96392   0.06916   0.38267 
C          C       0.93084   0.46392   0.63267 
C          C       0.53608   0.43084   0.88267 
C          C       0.56916   0.46392   0.11733 
C          C       0.53608   0.06916   0.36733 
C          C       0.93084   0.03608   0.61733 
C          C       0.96392   0.43084   0.86733 
C          C       0.06916   0.53608   0.63267 
C          C       0.46392   0.56916   0.88267 
C          C       0.43084   0.96392   0.13267 
C          C       0.03608   0.93084   0.38267 
C          C       0.06916   0.96392   0.61733 
C          C       0.03608   0.56916   0.86733 
C          C       0.43084   0.53608   0.11733 
C          C       0.46392   0.93084   0.36733 
H          H       0.61720   0.05990   0.17110 
H          H       0.94010   0.11720   0.42110 
H          H       0.88280   0.44010   0.67110 
H          H       0.55990   0.38280   0.92110 
H          H       0.61720   0.44010   0.07890 
H          H       0.55990   0.11720   0.32890 
H          H       0.88280   0.05990   0.57890 
H          H       0.94010   0.38280   0.82890 
H          H       0.11720   0.55990   0.67110 
H          H       0.44010   0.61720   0.92110 
H          H       0.38280   0.94010   0.17110 
H          H       0.05990   0.88280   0.42110 
H          H       0.11720   0.94010   0.57890 
H          H       0.05990   0.61720   0.82890 
H          H       0.38280   0.55990   0.07890 
H          H       0.44010   0.88280   0.32890 
C          C       0.56888   0.03775   0.01954 
C          C       0.96225   0.06888   0.26954 
C          C       0.93112   0.46225   0.51954 
C          C       0.53775   0.43112   0.76954 
C          C       0.56888   0.46225   0.23046 
C          C       0.53775   0.06888   0.48046 
C          C       0.93112   0.03775   0.73046 
C          C       0.96225   0.43112   0.98046 
C          C       0.06888   0.53775   0.51954 
C          C       0.46225   0.56888   0.76954 
C          C       0.43112   0.96225   0.01954 
C          C       0.03775   0.93112   0.26954 
C          C       0.06888   0.96225   0.73046 
C          C       0.03775   0.56888   0.98046 
C          C       0.43112   0.53775   0.23046 
C          C       0.46225   0.93112   0.48046 
H          H       0.69810   0.26320   0.11090 
H          H       0.75870   0.20022   0.39234 
H          H       0.80292   0.25059   0.61444 
H          H       0.77500   0.29691   0.85453 
H          H       0.26430   0.80414   0.35874 
H          H       0.19397   0.75067   0.61133 
H          H       0.19915   0.75860   0.90559 
H          H       0.30220   0.77305   0.13296 
