data_crystal

_cell_length_a    31.66800
_cell_length_b    31.66800
_cell_length_c    23.22700
_cell_angle_alpha 90.00000
_cell_angle_beta  90.00000
_cell_angle_gamma 120.00000

_space_group_name_Hall 'P 1'
_space_group_name_H-M_alt 'P 1'

loop_
_symmetry_equiv_pos_as_xyz
 'x,y,z'

loop_
_atom_site_label
_atom_site_type_symbol
_atom_site_fract_x
_atom_site_fract_y
_atom_site_fract_z
Zn         Zn      0.15930   0.44426   0.97784
Zn         Zn      0.28376   0.45844   0.97930
Zn         Zn      0.22308   0.44784   0.85628
O          O       0.22286   0.45304   0.94467
N          N       0.22440   0.44630   0.76590
N          N       0.09130   0.43370   1.01060
O          O      -0.07970   0.40110   1.02740
O          O       0.28520   0.51500   0.85530
O          O       0.45600   0.41050   1.10740
O          O       0.51930   0.69930   0.85490
O          O       0.49660   0.45185   1.02980
O          O       0.26330   0.44700   0.55809
O          O       0.40525   0.59922   0.89600
C          C       0.22970   0.44920   0.58170
N          N       0.34650   0.46150   1.01790
O          O       0.32620   0.51900   0.93600
O          O       0.19730   0.45360   0.55760
O          O      -0.05840   0.40090   1.11770
O          O       0.49420   0.66580   0.94100
C          C       0.22800   0.44790   0.64600
C          C       0.46170   0.43530   1.06390
C          C       0.42100   0.44520   1.04940
C          C      -0.00050   0.41510   1.04730
C          C       0.37010   0.60060   0.81540
H          H       0.34690   0.59290   0.78670
C          C      -0.04990   0.40500   1.06530
C          C       0.33920   0.42670   1.05510
H          H       0.30840   0.40810   1.07120
C          C       0.07560   0.42270   1.06370
H          H       0.09560   0.41950   1.09050
C          C       0.39140   0.49050   0.99850
H          H       0.39720   0.51630   0.97430
C          C       0.48820   0.67040   0.88810
C          C       0.32230   0.53350   0.88700
C          C       0.18910   0.44480   0.73360
H          H       0.16240   0.44320   0.75230
C          C       0.43860   0.63800   0.86280
C          C       0.26050   0.44810   0.73620
H          H       0.28510   0.44670   0.75630
C          C       0.41920   0.63990   0.81460
H          H       0.43430   0.66250   0.78520
C          C       0.36390   0.57730   0.86450
C          C       0.26430   0.45190   0.67910
H          H       0.29310   0.45740   0.66180
C          C       0.37480   0.41700   1.07070
H          H       0.36790   0.39140   1.09580
C          C       0.43050   0.48340   1.01350
H          H       0.46180   0.50410   0.99960
C          C       0.06030   0.43700   0.97710
H          H       0.06990   0.44630   0.93920
C          C       0.01510   0.42820   0.99220
H          H      -0.00500   0.43100   0.96510
C          C       0.03050   0.41560   1.08250
H          H       0.02310   0.41110   1.12160
C          C       0.18920   0.44540   0.67520
H          H       0.16320   0.44420   0.65520
Zn         Zn      0.55574   0.71504   0.97784
Zn         Zn      0.28496   0.44426   0.47784
Zn         Zn      0.49263   0.38171   1.14451
Zn         Zn      0.17468   0.45844   0.47930
Zn         Zn     -0.12511   0.38291   1.14597
Zn         Zn      0.55216   0.77524   0.85628
Zn         Zn     -0.11451   0.44359   1.02295
Zn         Zn      0.55641   0.44191   1.02295
O          O       0.26560   0.41300   0.86070
O          O       0.12270   0.37890   0.94070
O          O       0.18000   0.48070   0.85490
O          O       0.16330   0.37812   0.86310
O          O       0.18370   0.44700   1.05809
O          O       0.25630   0.45360   1.05760
O          O       0.26580   0.39170   0.95100
O          O       0.17160   0.50580   0.94100
H          H       0.23761   0.48903   0.94308
Zn         Zn      0.54156   0.82532   0.97930
O          O       0.54696   0.76982   0.94467
N          N       0.55370   0.77810   0.76590
N          N       0.56630   0.65760   1.01060
O          O       0.59890   0.51930   1.02740
O          O       0.48500   0.77020   0.85530
O          O       0.58950   1.04560   1.10740
O          O       0.30070   0.82000   0.85490
O          O       0.54815   1.04479   1.02980
O          O       0.55300   0.81630   0.55809
O          O       0.40078   0.80603   0.89600
C          C       0.55080   0.78050   0.58170
N          N       0.53850   0.88500   1.01790
O          O       0.48100   0.80720   0.93600
O          O       0.54640   0.74370   0.55760
O          O       0.59910   0.54080   1.11770
O          O       0.33420   0.82840   0.94100
C          C       0.55210   0.78010   0.64600
C          C       0.56470   1.02650   1.06390
C          C       0.55480   0.97590   1.04940
C          C       0.58490   0.58450   1.04730
C          C       0.39940   0.76950   0.81540
H          H       0.40710   0.75400   0.78670
C          C       0.59500   0.54520   1.06530
C          C       0.57330   0.91250   1.05510
H          H       0.59190   0.90030   1.07120
C          C       0.57730   0.65290   1.06370
H          H       0.58050   0.67610   1.09050
C          C       0.50950   0.90090   0.99850
H          H       0.48370   0.88090   0.97430
C          C       0.32960   0.81780   0.88810
C          C       0.46650   0.78880   0.88700
C          C       0.55520   0.74430   0.73360
H          H       0.55680   0.71920   0.75230
C          C       0.36200   0.80060   0.86280
C          C       0.55190   0.81240   0.73620
H          H       0.55330   0.83840   0.75630
C          C       0.36010   0.77930   0.81460
H          H       0.33750   0.77180   0.78520
C          C       0.42270   0.78660   0.86450
C          C       0.54810   0.81240   0.67910
H          H       0.54260   0.83570   0.66180
C          C       0.58300   0.95780   1.07070
H          H       0.60860   0.97650   1.09580
C          C       0.51660   0.94710   1.01350
H          H       0.49590   0.95770   0.99960
C          C       0.56300   0.62330   0.97710
H          H       0.55370   0.62360   0.93920
C          C       0.57180   0.58700   0.99220
H          H       0.56900   0.56410   0.96510
C          C       0.58440   0.61490   1.08250
H          H       0.58890   0.61200   1.12160
C          C       0.55460   0.74380   0.67520
H          H       0.55580   0.71900   0.65520
Zn         Zn      0.28496   0.84070   0.97784
Zn         Zn      0.55574   0.84070   0.47784
Zn         Zn      0.61829   1.11093   1.14451
Zn         Zn      0.54156   0.71624   0.47930
Zn         Zn      0.61709   0.49199   1.14597
Zn         Zn      0.22476   0.77692   0.85628
Zn         Zn      0.55809   1.11451   1.02295
O          O       0.58700   0.85260   0.86070
O          O       0.62110   0.74380   0.94070
O          O       0.62188   0.78518   0.86310
O          O       0.55300   0.73670   1.05809
O          O       0.54640   0.80270   1.05760
O          O       0.60830   0.87410   0.95100
H          H       0.51097   0.74858   0.94308
Zn         Zn      0.17468   0.71624   0.97930
O          O       0.23018   0.77714   0.94467
N          N       0.22190   0.77560   0.76590
N          N       0.34240   0.90870   1.01060
O          O       0.48070   1.07970   1.02740
O          O       0.22980   0.71480   0.85530
O          O      -0.04560   0.54400   1.10740
O          O      -0.04479   0.50340   1.02980
O          O       0.18370   0.73670   0.55809
O          O       0.19397   0.59475   0.89600
C          C       0.21950   0.77030   0.58170
N          N       0.11500   0.65350   1.01790
O          O       0.19280   0.67380   0.93600
O          O       0.25630   0.80270   0.55760
O          O       0.45920   1.05840   1.11770
C          C       0.21990   0.77200   0.64600
C          C      -0.02650   0.53830   1.06390
C          C       0.02410   0.57900   1.04940
C          C       0.41550   1.00050   1.04730
C          C       0.23050   0.62990   0.81540
H          H       0.24600   0.65310   0.78670
C          C       0.45480   1.04990   1.06530
C          C       0.08750   0.66080   1.05510
H          H       0.09970   0.69160   1.07120
C          C       0.34710   0.92440   1.06370
H          H       0.32390   0.90440   1.09050
C          C       0.09910   0.60860   0.99850
H          H       0.11910   0.60280   0.97430
C          C       0.18220   0.51180   0.88810
C          C       0.21120   0.67770   0.88700
C          C       0.25570   0.81090   0.73360
H          H       0.28080   0.83760   0.75230
C          C       0.19940   0.56140   0.86280
C          C       0.18760   0.73950   0.73620
H          H       0.16160   0.71490   0.75630
C          C       0.22070   0.58080   0.81460
H          H       0.22820   0.56570   0.78520
C          C       0.21340   0.63610   0.86450
C          C       0.18760   0.73570   0.67910
H          H       0.16430   0.70690   0.66180
C          C       0.04220   0.62520   1.07070
H          H       0.02350   0.63210   1.09580
C          C       0.05290   0.56950   1.01350
H          H       0.04230   0.53820   0.99960
C          C       0.37670   0.93970   0.97710
H          H       0.37640   0.93010   0.93920
C          C       0.41300   0.98490   0.99220
H          H       0.43590   1.00500   0.96510
C          C       0.38510   0.96950   1.08250
H          H       0.38800   0.97690   1.12160
C          C       0.25620   0.81080   0.67520
H          H       0.28100   0.83680   0.65520
Zn         Zn      0.15930   0.71504   0.47784
Zn         Zn     -0.11093   0.50737   1.14451
Zn         Zn      0.28376   0.82532   0.47930
Zn         Zn      0.50801   1.12511   1.14597
O          O       0.14740   0.73440   0.86070
O          O       0.25620   0.87730   0.94070
O          O       0.21482   0.83670   0.86310
O          O       0.26330   0.81630   1.05809
O          O       0.19730   0.74370   1.05760
O          O       0.12590   0.73420   0.95100
H          H       0.25142   0.76239   0.94308
Zn         Zn      0.55216   0.77692   0.35628
O          O       0.54696   0.77714   0.44467
N          N       0.55370   0.77560   0.26590
N          N       0.56630   0.90870   0.51060
O          O       0.59890   1.07970   0.52740
O          O       0.48500   0.71480   0.35530
O          O       0.58950   0.54400   0.60740
O          O       0.30070   0.48070   0.35490
O          O       0.54815   0.50340   0.52980
O          O       0.40078   0.59475   0.39600
C          C       0.55080   0.77030   0.08170
N          N       0.53850   0.65350   0.51790
O          O       0.48100   0.67380   0.43600
O          O       0.59910   1.05840   0.61770
O          O       0.33420   0.50580   0.44100
C          C       0.55210   0.77200   0.14600
C          C       0.56470   0.53830   0.56390
C          C       0.55480   0.57900   0.54940
C          C       0.58490   1.00050   0.54730
C          C       0.39940   0.62990   0.31540
H          H       0.40710   0.65310   0.28670
C          C       0.59500   1.04990   0.56530
C          C       0.57330   0.66080   0.55510
H          H       0.59190   0.69160   0.57120
C          C       0.57730   0.92440   0.56370
H          H       0.58050   0.90440   0.59050
C          C       0.50950   0.60860   0.49850
H          H       0.48370   0.60280   0.47430
C          C       0.32960   0.51180   0.38810
C          C       0.46650   0.67770   0.38700
C          C       0.55520   0.81090   0.23360
H          H       0.55680   0.83760   0.25230
C          C       0.36200   0.56140   0.36280
C          C       0.55190   0.73950   0.23620
H          H       0.55330   0.71490   0.25630
C          C       0.36010   0.58080   0.31460
H          H       0.33750   0.56570   0.28520
C          C       0.42270   0.63610   0.36450
C          C       0.54810   0.73570   0.17910
H          H       0.54260   0.70690   0.16180
C          C       0.58300   0.62520   0.57070
H          H       0.60860   0.63210   0.59580
C          C       0.51660   0.56950   0.51350
H          H       0.49590   0.53820   0.49960
C          C       0.56300   0.93970   0.47710
H          H       0.55370   0.93010   0.43920
C          C       0.57180   0.98490   0.49220
H          H       0.56900   1.00500   0.46510
C          C       0.58440   0.96950   0.58250
H          H       0.58890   0.97690   0.62160
C          C       0.55460   0.81080   0.17520
H          H       0.55580   0.83680   0.15520
Zn         Zn      0.61829   0.50737   0.64451
Zn         Zn      0.61709   1.12511   0.64597
Zn         Zn      0.22476   0.44784   0.35628
Zn         Zn      0.55641   1.11451   0.52295
Zn         Zn      0.55809   0.44359   0.52295
O          O       0.58700   0.73440   0.36070
O          O       0.62110   0.87730   0.44070
O          O       0.51930   0.82000   0.35490
O          O       0.62188   0.83670   0.36310
O          O       0.60830   0.73420   0.45100
O          O       0.49420   0.82840   0.44100
H          H       0.51097   0.76239   0.44308
O          O       0.23018   0.45304   0.44467
N          N       0.22190   0.44630   0.26590
N          N       0.34240   0.43370   0.51060
O          O       0.48070   0.40110   0.52740
O          O       0.22980   0.51500   0.35530
O          O      -0.04560   0.41050   0.60740
O          O       0.18000   0.69930   0.35490
O          O      -0.04479   0.45185   0.52980
O          O       0.19397   0.59922   0.39600
C          C       0.21950   0.44920   0.08170
N          N       0.11500   0.46150   0.51790
O          O       0.19280   0.51900   0.43600
O          O       0.45920   0.40090   0.61770
O          O       0.17160   0.66580   0.44100
C          C       0.21990   0.44790   0.14600
C          C      -0.02650   0.43530   0.56390
C          C       0.02410   0.44520   0.54940
C          C       0.41550   0.41510   0.54730
C          C       0.23050   0.60060   0.31540
H          H       0.24600   0.59290   0.28670
C          C       0.45480   0.40500   0.56530
C          C       0.08750   0.42670   0.55510
H          H       0.09970   0.40810   0.57120
C          C       0.34710   0.42270   0.56370
H          H       0.32390   0.41950   0.59050
C          C       0.09910   0.49050   0.49850
H          H       0.11910   0.51630   0.47430
C          C       0.18220   0.67040   0.38810
C          C       0.21120   0.53350   0.38700
C          C       0.25570   0.44480   0.23360
H          H       0.28080   0.44320   0.25230
C          C       0.19940   0.63800   0.36280
C          C       0.18760   0.44810   0.23620
H          H       0.16160   0.44670   0.25630
C          C       0.22070   0.63990   0.31460
H          H       0.22820   0.66250   0.28520
C          C       0.21340   0.57730   0.36450
C          C       0.18760   0.45190   0.17910
H          H       0.16430   0.45740   0.16180
C          C       0.04220   0.41700   0.57070
H          H       0.02350   0.39140   0.59580
C          C       0.05290   0.48340   0.51350
H          H       0.04230   0.50410   0.49960
C          C       0.37670   0.43700   0.47710
H          H       0.37640   0.44630   0.43920
C          C       0.41300   0.42820   0.49220
H          H       0.43590   0.43100   0.46510
C          C       0.38510   0.41560   0.58250
H          H       0.38800   0.41110   0.62160
C          C       0.25620   0.44540   0.17520
H          H       0.28100   0.44420   0.15520
Zn         Zn     -0.11093   0.38171   0.64451
Zn         Zn      0.50801   0.38291   0.64597
Zn         Zn      0.22308   0.77524   0.35628
Zn         Zn     -0.11451   0.44191   0.52295
O          O       0.14740   0.41300   0.36070
O          O       0.25620   0.37890   0.44070
O          O       0.21482   0.37812   0.36310
O          O       0.12590   0.39170   0.45100
H          H       0.25142   0.48903   0.44308
O          O       0.22286   0.76982   0.44467
N          N       0.22440   0.77810   0.26590
N          N       0.09130   0.65760   0.51060
O          O      -0.07970   0.51930   0.52740
O          O       0.28520   0.77020   0.35530
O          O       0.45600   1.04560   0.60740
O          O       0.49660   1.04479   0.52980
O          O       0.40525   0.80603   0.39600
C          C       0.22970   0.78050   0.08170
N          N       0.34650   0.88500   0.51790
O          O       0.32620   0.80720   0.43600
O          O      -0.05840   0.54080   0.61770
C          C       0.22800   0.78010   0.14600
C          C       0.46170   1.02650   0.56390
C          C       0.42100   0.97590   0.54940
C          C      -0.00050   0.58450   0.54730
C          C       0.37010   0.76950   0.31540
H          H       0.34690   0.75400   0.28670
C          C      -0.04990   0.54520   0.56530
C          C       0.33920   0.91250   0.55510
H          H       0.30840   0.90030   0.57120
C          C       0.07560   0.65290   0.56370
H          H       0.09560   0.67610   0.59050
C          C       0.39140   0.90090   0.49850
H          H       0.39720   0.88090   0.47430
C          C       0.48820   0.81780   0.38810
C          C       0.32230   0.78880   0.38700
C          C       0.18910   0.74430   0.23360
H          H       0.16240   0.71920   0.25230
C          C       0.43860   0.80060   0.36280
C          C       0.26050   0.81240   0.23620
H          H       0.28510   0.83840   0.25630
C          C       0.41920   0.77930   0.31460
H          H       0.43430   0.77180   0.28520
C          C       0.36390   0.78660   0.36450
C          C       0.26430   0.81240   0.17910
H          H       0.29310   0.83570   0.16180
C          C       0.37480   0.95780   0.57070
H          H       0.36790   0.97650   0.59580
C          C       0.43050   0.94710   0.51350
H          H       0.46180   0.95770   0.49960
C          C       0.06030   0.62330   0.47710
H          H       0.06990   0.62360   0.43920
C          C       0.01510   0.58700   0.49220
H          H      -0.00500   0.56410   0.46510
C          C       0.03050   0.61490   0.58250
H          H       0.02310   0.61200   0.62160
C          C       0.18920   0.74380   0.17520
H          H       0.16320   0.71900   0.15520
Zn         Zn      0.49263   1.11093   0.64451
Zn         Zn     -0.12511   0.49199   0.64597
O          O       0.26560   0.85260   0.36070
O          O       0.12270   0.74380   0.44070
O          O       0.16330   0.78518   0.36310
O          O       0.26580   0.87410   0.45100
H          H       0.23761   0.74858   0.44308
Zn         Zn      0.82597   0.77759   0.31117
Zn         Zn      0.95043   0.79177   0.31263
Zn         Zn      0.88975   0.78117   0.18961
O          O       0.88953   0.78637   0.27800
N          N       0.89110   0.77960   0.09920
N          N       0.75800   0.76700   0.34390
O          O       0.95190   0.84830   0.18860
O          O       1.18600   1.03260   0.18820
O          O       0.93000   0.78030  -0.10858
O          O       1.07192   0.93255   0.22930
C          C       0.89640   0.78250  -0.08500
N          N       1.01320   0.79480   0.35120
O          O       0.99290   0.85230   0.26930
O          O       0.86400   0.78690  -0.10910
O          O       1.16090   0.99910   0.27430
C          C       0.89470   0.78120  -0.02070
C          C       1.12840   0.76860   0.39720
C          C       1.08770   0.77850   0.38270
C          C       0.66620   0.74840   0.38060
C          C       1.03680   0.93390   0.14870
H          H       1.01360   0.92620   0.12000
C          C       0.61680   0.73830   0.39860
C          C       1.00590   0.76000   0.38840
H          H       0.97510   0.74140   0.40450
C          C       0.74230   0.75600   0.39700
H          H       0.76230   0.75280   0.42380
C          C       1.05810   0.82380   0.33180
H          H       1.06390   0.84960   0.30760
C          C       1.15490   1.00370   0.22140
C          C       0.98900   0.86680   0.22030
C          C       0.85580   0.77810   0.06690
H          H       0.82910   0.77650   0.08560
C          C       1.10530   0.97130   0.19610
C          C       0.92720   0.78140   0.06950
H          H       0.95180   0.78000   0.08960
C          C       1.08590   0.97320   0.14790
H          H       1.10100   0.99580   0.11850
C          C       1.03060   0.91060   0.19780
C          C       0.93100   0.78520   0.01240
H          H       0.95980   0.79070  -0.00490
C          C       1.04150   0.75030   0.40400
H          H       1.03460   0.72470   0.42910
C          C       1.09720   0.81670   0.34680
H          H       1.12850   0.83740   0.33290
C          C       0.72700   0.77030   0.31040
H          H       0.73660   0.77960   0.27250
C          C       0.68180   0.76150   0.32550
H          H       0.66170   0.76430   0.29840
C          C       0.69720   0.74890   0.41580
H          H       0.68980   0.74440   0.45490
C          C       0.85590   0.77870   0.00850
H          H       0.82990   0.77750  -0.01150
Zn         Zn      1.22241   1.04837   0.31117
Zn         Zn      0.95163   0.77759  -0.18883
Zn         Zn      0.84135   0.79177  -0.18737
Zn         Zn      1.21883   1.10857   0.18961
O          O       0.93230   0.74630   0.19400
O          O       0.78940   0.71220   0.27400
O          O       0.84670   0.81400   0.18820
O          O       0.83000   0.71145   0.19640
O          O       0.85040   0.78030   0.39142
O          O       0.92300   0.78690   0.39090
O          O       0.93250   0.72500   0.28430
O          O       0.83830   0.83910   0.27430
H          H       0.90428   0.82236   0.27642
Zn         Zn      0.20823   0.15865   0.31263
O          O       0.21363   0.10315   0.27800
N          N       0.22040   0.11140   0.09920
N          N       0.23300  -0.00910   0.34390
O          O       0.15170   0.10350   0.18860
O          O      -0.03260   0.15330   0.18820
O          O       0.21970   0.14960  -0.10858
O          O       0.06745   0.13936   0.22930
C          C       0.21750   0.11380  -0.08500
N          N       0.20520   0.21830   0.35120
O          O       0.14770   0.14050   0.26930
O          O       0.21310   0.07700  -0.10910
O          O       0.00090   0.16170   0.27430
C          C       0.21880   0.11340  -0.02070
C          C       0.23140   0.35980   0.39720
C          C       0.22150   0.30920   0.38270
C          C       0.25160  -0.08220   0.38060
C          C       0.06610   0.10280   0.14870
H          H       0.07380   0.08730   0.12000
C          C       0.26170  -0.12150   0.39860
C          C       0.24000   0.24580   0.38840
H          H       0.25860   0.23360   0.40450
C          C       0.24400  -0.01380   0.39700
H          H       0.24720   0.00940   0.42380
C          C       0.17620   0.23420   0.33180
H          H       0.15040   0.21420   0.30760
C          C      -0.00370   0.15110   0.22140
C          C       0.13320   0.12210   0.22030
C          C       0.22190   0.07760   0.06690
H          H       0.22350   0.05250   0.08560
C          C       0.02870   0.13390   0.19610
C          C       0.21860   0.14570   0.06950
H          H       0.22000   0.17170   0.08960
C          C       0.02680   0.11260   0.14790
H          H       0.00420   0.10510   0.11850
C          C       0.08940   0.11990   0.19780
C          C       0.21480   0.14570   0.01240
H          H       0.20930   0.16900  -0.00490
C          C       0.24970   0.29110   0.40400
H          H       0.27530   0.30980   0.42910
C          C       0.18330   0.28040   0.34680
H          H       0.16260   0.29100   0.33290
C          C       0.22970  -0.04340   0.31040
H          H       0.22040  -0.04310   0.27250
C          C       0.23850  -0.07970   0.32550
H          H       0.23570  -0.10260   0.29840
C          C       0.25110  -0.05180   0.41580
H          H       0.25560  -0.05470   0.45490
C          C       0.22130   0.07710   0.00850
H          H       0.22250   0.05230  -0.01150
Zn         Zn     -0.04837   0.17403   0.31117
Zn         Zn      0.22241   0.17403  -0.18883
Zn         Zn      0.20823   0.04957  -0.18737
Zn         Zn     -0.10857   0.11025   0.18961
O          O       0.25370   0.18590   0.19400
O          O       0.28780   0.07710   0.27400
O          O       0.28855   0.11851   0.19640
O          O       0.21970   0.07000   0.39142
O          O       0.21310   0.13600   0.39090
O          O       0.27500   0.20740   0.28430
H          H       0.17764   0.08192   0.27642
Zn         Zn      0.84135   0.04957   0.31263
O          O       0.89685   0.11047   0.27800
N          N       0.88860   0.10890   0.09920
N          N       1.00910   0.24200   0.34390
O          O       0.89650   0.04810   0.18860
O          O       0.85040   0.07000  -0.10858
O          O       0.86064  -0.07192   0.22930
C          C       0.88620   0.10360  -0.08500
N          N       0.78170  -0.01320   0.35120
O          O       0.85950   0.00710   0.26930
O          O       0.92300   0.13600  -0.10910
C          C       0.88660   0.10530  -0.02070
C          C       0.64020  -0.12840   0.39720
C          C       0.69080  -0.08770   0.38270
C          C       1.08220   0.33380   0.38060
C          C       0.89720  -0.03680   0.14870
H          H       0.91270  -0.01360   0.12000
C          C       1.12150   0.38320   0.39860
C          C       0.75420  -0.00590   0.38840
H          H       0.76640   0.02490   0.40450
C          C       1.01380   0.25770   0.39700
H          H       0.99060   0.23770   0.42380
C          C       0.76580  -0.05810   0.33180
H          H       0.78580  -0.06390   0.30760
C          C       0.84890  -0.15490   0.22140
C          C       0.87790   0.01100   0.22030
C          C       0.92240   0.14420   0.06690
H          H       0.94750   0.17090   0.08560
C          C       0.86610  -0.10530   0.19610
C          C       0.85430   0.07280   0.06950
H          H       0.82830   0.04820   0.08960
C          C       0.88740  -0.08590   0.14790
H          H       0.89490  -0.10100   0.11850
C          C       0.88010  -0.03060   0.19780
C          C       0.85430   0.06900   0.01240
H          H       0.83100   0.04020  -0.00490
C          C       0.70890  -0.04150   0.40400
H          H       0.69020  -0.03460   0.42910
C          C       0.71960  -0.09720   0.34680
H          H       0.70900  -0.12850   0.33290
C          C       1.04340   0.27300   0.31040
H          H       1.04310   0.26340   0.27250
C          C       1.07970   0.31820   0.32550
H          H       1.10260   0.33830   0.29840
C          C       1.05180   0.30280   0.41580
H          H       1.05470   0.31020   0.45490
C          C       0.92290   0.14410   0.00850
H          H       0.94770   0.17010  -0.01150
Zn         Zn      0.82597   0.04837  -0.18883
Zn         Zn      0.95043   0.15865  -0.18737
O          O       0.81410   0.06770   0.19400
O          O       0.92290   0.21060   0.27400
O          O       0.88149   0.17000   0.19640
O          O       0.93000   0.14960   0.39142
O          O       0.86400   0.07700   0.39090
O          O       0.79260   0.06750   0.28430
H          H       0.91808   0.09572   0.27642
Zn         Zn      0.21883   0.11025   0.68961
O          O       0.21363   0.11047   0.77800
N          N       0.22040   0.10890   0.59920
N          N       0.23300   0.24200   0.84390
O          O       0.15170   0.04810   0.68860
O          O      -0.03260  -0.18600   0.68820
O          O       0.06745  -0.07192   0.72930
C          C       0.21750   0.10360   0.41500
N          N       0.20520  -0.01320   0.85120
O          O       0.14770   0.00710   0.76930
O          O       0.00090  -0.16090   0.77430
C          C       0.21880   0.10530   0.47930
C          C       0.23140  -0.12840   0.89720
C          C       0.22150  -0.08770   0.88270
C          C       0.25160   0.33380   0.88060
C          C       0.06610  -0.03680   0.64870
H          H       0.07380  -0.01360   0.62000
C          C       0.26170   0.38320   0.89860
C          C       0.24000  -0.00590   0.88840
H          H       0.25860   0.02490   0.90450
C          C       0.24400   0.25770   0.89700
H          H       0.24720   0.23770   0.92380
C          C       0.17620  -0.05810   0.83180
H          H       0.15040  -0.06390   0.80760
C          C      -0.00370  -0.15490   0.72140
C          C       0.13320   0.01100   0.72030
C          C       0.22190   0.14420   0.56690
H          H       0.22350   0.17090   0.58560
C          C       0.02870  -0.10530   0.69610
C          C       0.21860   0.07280   0.56950
H          H       0.22000   0.04820   0.58960
C          C       0.02680  -0.08590   0.64790
H          H       0.00420  -0.10100   0.61850
C          C       0.08940  -0.03060   0.69780
C          C       0.21480   0.06900   0.51240
H          H       0.20930   0.04020   0.49510
C          C       0.24970  -0.04150   0.90400
H          H       0.27530  -0.03460   0.92910
C          C       0.18330  -0.09720   0.84680
H          H       0.16260  -0.12850   0.83290
C          C       0.22970   0.27300   0.81040
H          H       0.22040   0.26340   0.77250
C          C       0.23850   0.31820   0.82550
H          H       0.23570   0.33830   0.79840
C          C       0.25110   0.30280   0.91580
H          H       0.25560   0.31020   0.95490
C          C       0.22130   0.14410   0.50850
H          H       0.22250   0.17010   0.48850
Zn         Zn     -0.10857  -0.21883   0.68961
O          O       0.25370   0.06770   0.69400
O          O       0.28780   0.21060   0.77400
O          O       0.18600   0.15330   0.68820
O          O       0.28855   0.17000   0.69640
O          O       0.27500   0.06750   0.78430
O          O       0.16090   0.16170   0.77430
H          H       0.17764   0.09572   0.77642
O          O       0.89685   0.78637   0.77800
N          N       0.88860   0.77960   0.59920
N          N       1.00910   0.76700   0.84390
O          O       0.89650   0.84830   0.68860
O          O       0.84670   1.03260   0.68820
O          O       0.86064   0.93255   0.72930
C          C       0.88620   0.78250   0.41500
N          N       0.78170   0.79480   0.85120
O          O       0.85950   0.85230   0.76930
O          O       0.83830   0.99910   0.77430
C          C       0.88660   0.78120   0.47930
C          C       0.64020   0.76860   0.89720
C          C       0.69080   0.77850   0.88270
C          C       1.08220   0.74840   0.88060
C          C       0.89720   0.93390   0.64870
H          H       0.91270   0.92620   0.62000
C          C       1.12150   0.73830   0.89860
C          C       0.75420   0.76000   0.88840
H          H       0.76640   0.74140   0.90450
C          C       1.01380   0.75600   0.89700
H          H       0.99060   0.75280   0.92380
C          C       0.76580   0.82380   0.83180
H          H       0.78580   0.84960   0.80760
C          C       0.84890   1.00370   0.72140
C          C       0.87790   0.86680   0.72030
C          C       0.92240   0.77810   0.56690
H          H       0.94750   0.77650   0.58560
C          C       0.86610   0.97130   0.69610
C          C       0.85430   0.78140   0.56950
H          H       0.82830   0.78000   0.58960
C          C       0.88740   0.97320   0.64790
H          H       0.89490   0.99580   0.61850
C          C       0.88010   0.91060   0.69780
C          C       0.85430   0.78520   0.51240
H          H       0.83100   0.79070   0.49510
C          C       0.70890   0.75030   0.90400
H          H       0.69020   0.72470   0.92910
C          C       0.71960   0.81670   0.84680
H          H       0.70900   0.83740   0.83290
C          C       1.04340   0.77030   0.81040
H          H       1.04310   0.77960   0.77250
C          C       1.07970   0.76150   0.82550
H          H       1.10260   0.76430   0.79840
C          C       1.05180   0.74890   0.91580
H          H       1.05470   0.74440   0.95490
C          C       0.92290   0.77870   0.50850
H          H       0.94770   0.77750   0.48850
Zn         Zn      0.88975   1.10857   0.68961
O          O       0.81410   0.74630   0.69400
O          O       0.92290   0.71220   0.77400
O          O       0.88149   0.71145   0.69640
O          O       0.79260   0.72500   0.78430
H          H       0.91808   0.82236   0.77642
O          O       0.88953   0.10315   0.77800
N          N       0.89110   0.11140   0.59920
N          N       0.75800  -0.00910   0.84390
O          O       0.95190   0.10350   0.68860
O          O       1.07192   0.13936   0.72930
C          C       0.89640   0.11380   0.41500
N          N       1.01320   0.21830   0.85120
O          O       0.99290   0.14050   0.76930
C          C       0.89470   0.11340   0.47930
C          C       1.12840   0.35980   0.89720
C          C       1.08770   0.30920   0.88270
C          C       0.66620  -0.08220   0.88060
C          C       1.03680   0.10280   0.64870
H          H       1.01360   0.08730   0.62000
C          C       0.61680  -0.12150   0.89860
C          C       1.00590   0.24580   0.88840
H          H       0.97510   0.23360   0.90450
C          C       0.74230  -0.01380   0.89700
H          H       0.76230   0.00940   0.92380
C          C       1.05810   0.23420   0.83180
H          H       1.06390   0.21420   0.80760
C          C       1.15490   0.15110   0.72140
C          C       0.98900   0.12210   0.72030
C          C       0.85580   0.07760   0.56690
H          H       0.82910   0.05250   0.58560
C          C       1.10530   0.13390   0.69610
C          C       0.92720   0.14570   0.56950
H          H       0.95180   0.17170   0.58960
C          C       1.08590   0.11260   0.64790
H          H       1.10100   0.10510   0.61850
C          C       1.03060   0.11990   0.69780
C          C       0.93100   0.14570   0.51240
H          H       0.95980   0.16900   0.49510
C          C       1.04150   0.29110   0.90400
H          H       1.03460   0.30980   0.92910
C          C       1.09720   0.28040   0.84680
H          H       1.12850   0.29100   0.83290
C          C       0.72700  -0.04340   0.81040
H          H       0.73660  -0.04310   0.77250
C          C       0.68180  -0.07970   0.82550
H          H       0.66170  -0.10260   0.79840
C          C       0.69720  -0.05180   0.91580
H          H       0.68980  -0.05470   0.95490
C          C       0.85590   0.07710   0.50850
H          H       0.82990   0.05230   0.48850
O          O       0.93230   0.18590   0.69400
O          O       0.78940   0.07710   0.77400
O          O       0.83000   0.11851   0.69640
O          O       0.93250   0.20740   0.78430
H          H       0.90428   0.08192   0.77642
O          O       0.55619   0.11971   0.61134
N          N       0.55770   0.11300   0.43260
N          N       0.42460   0.10040   0.67730
O          O       0.61850   0.18170   0.52200
O          O       0.85260   0.36600   0.52160
O          O       0.59660   0.11370   0.22476
O          O       0.73858   0.26589   0.56270
C          C       0.56300   0.11590   0.24840
N          N       0.67980   0.12820   0.68460
O          O       0.65950   0.18570   0.60270
O          O       0.53060   0.12030   0.22430
O          O       0.82750   0.33250   0.60770
C          C       0.56130   0.11460   0.31270
C          C       0.79510   0.10190   0.73050
C          C       0.75440   0.11180   0.71600
C          C       0.33290   0.08170   0.71390
C          C       0.70340   0.26730   0.48210
H          H       0.68020   0.25960   0.45340
C          C       0.28350   0.07160   0.73190
C          C       0.67250   0.09340   0.72180
H          H       0.64170   0.07480   0.73790
C          C       0.40890   0.08940   0.73040
H          H       0.42890   0.08620   0.75720
C          C       0.72470   0.15720   0.66520
H          H       0.73050   0.18300   0.64100
C          C       0.82150   0.33710   0.55480
C          C       0.65560   0.20020   0.55370
C          C       0.52240   0.11150   0.40030
H          H       0.49570   0.10990   0.41900
C          C       0.77190   0.30470   0.52950
C          C       0.59380   0.11480   0.40290
H          H       0.61840   0.11340   0.42300
C          C       0.75250   0.30660   0.48130
H          H       0.76760   0.32920   0.45190
C          C       0.69720   0.24400   0.53120
C          C       0.59760   0.11860   0.34580
H          H       0.62640   0.12410   0.32850
C          C       0.70810   0.08370   0.73740
H          H       0.70120   0.05810   0.76250
C          C       0.76380   0.15010   0.68020
H          H       0.79510   0.17080   0.66630
C          C       0.39360   0.10370   0.64380
H          H       0.40320   0.11300   0.60590
C          C       0.34850   0.09480   0.65880
H          H       0.32840   0.09760   0.63170
C          C       0.36380   0.08230   0.74920
H          H       0.35640   0.07780   0.78830
C          C       0.52250   0.11210   0.34190
H          H       0.49650   0.11090   0.32190
O          O       0.51330   0.14740   0.52160
O          O       0.51700   0.11370   0.72476
O          O       0.58960   0.12030   0.72430
O          O       0.50490   0.17250   0.60770
H          H       0.57094   0.15570   0.60975
O          O       0.88029   0.43649   0.61134
N          N       0.88700   0.44480   0.43260
N          N       0.89960   0.32430   0.67730
O          O       0.81830   0.43690   0.52200
O          O       0.63400   0.48670   0.52160
O          O       0.88630   0.48300   0.22476
O          O       0.73411   0.47270   0.56270
C          C       0.88410   0.44720   0.24840
N          N       0.87180   0.55170   0.68460
O          O       0.81430   0.47390   0.60270
O          O       0.87970   0.41040   0.22430
O          O       0.66750   0.49510   0.60770
C          C       0.88540   0.44680   0.31270
C          C       0.89810   0.69310   0.73050
C          C       0.88820   0.64250   0.71600
C          C       0.91830   0.25110   0.71390
C          C       0.73270   0.43620   0.48210
H          H       0.74040   0.42070   0.45340
C          C       0.92840   0.21180   0.73190
C          C       0.90660   0.57920   0.72180
H          H       0.92520   0.56700   0.73790
C          C       0.91060   0.31960   0.73040
H          H       0.91380   0.34280   0.75720
C          C       0.84280   0.56760   0.66520
H          H       0.81700   0.54760   0.64100
C          C       0.66290   0.48450   0.55480
C          C       0.79980   0.45550   0.55370
C          C       0.88850   0.41100   0.40030
H          H       0.89010   0.38590   0.41900
C          C       0.69530   0.46730   0.52950
C          C       0.88520   0.47910   0.40290
H          H       0.88660   0.50510   0.42300
C          C       0.69340   0.44600   0.48130
H          H       0.67080   0.43850   0.45190
C          C       0.75600   0.45330   0.53120
C          C       0.88140   0.47910   0.34580
H          H       0.87590   0.50240   0.32850
C          C       0.91630   0.62450   0.73740
H          H       0.94190   0.64320   0.76250
C          C       0.84990   0.61380   0.68020
H          H       0.82920   0.62440   0.66630
C          C       0.89630   0.29000   0.64380
H          H       0.88700   0.29030   0.60590
C          C       0.90520   0.25360   0.65880
H          H       0.90240   0.23070   0.63170
C          C       0.91770   0.28160   0.74920
H          H       0.92220   0.27870   0.78830
C          C       0.88790   0.41050   0.34190
H          H       0.88910   0.38570   0.32190
O          O       0.88630   0.40340   0.72476
O          O       0.87970   0.46940   0.72430
H          H       0.84430   0.41525   0.60975
O          O       0.56351   0.44381   0.61134
N          N       0.55520   0.44230   0.43260
N          N       0.67570   0.57540   0.67730
O          O       0.56310   0.38150   0.52200
O          O       0.51700   0.40340   0.22476
O          O       0.52730   0.26142   0.56270
C          C       0.55280   0.43700   0.24840
N          N       0.44830   0.32020   0.68460
O          O       0.52610   0.34050   0.60270
O          O       0.58960   0.46940   0.22430
C          C       0.55320   0.43870   0.31270
C          C       0.30690   0.20490   0.73050
C          C       0.35750   0.24560   0.71600
C          C       0.74890   0.66710   0.71390
C          C       0.56380   0.29660   0.48210
H          H       0.57930   0.31980   0.45340
C          C       0.78820   0.71650   0.73190
C          C       0.42080   0.32750   0.72180
H          H       0.43300   0.35830   0.73790
C          C       0.68040   0.59110   0.73040
H          H       0.65720   0.57110   0.75720
C          C       0.43240   0.27530   0.66520
H          H       0.45240   0.26950   0.64100
C          C       0.51550   0.17850   0.55480
C          C       0.54450   0.34440   0.55370
C          C       0.58900   0.47760   0.40030
H          H       0.61410   0.50430   0.41900
C          C       0.53270   0.22810   0.52950
C          C       0.52090   0.40620   0.40290
H          H       0.49490   0.38160   0.42300
C          C       0.55400   0.24750   0.48130
H          H       0.56150   0.23240   0.45190
C          C       0.54670   0.30280   0.53120
C          C       0.52090   0.40240   0.34580
H          H       0.49760   0.37360   0.32850
C          C       0.37550   0.29190   0.73740
H          H       0.35680   0.29880   0.76250
C          C       0.38620   0.23620   0.68020
H          H       0.37560   0.20490   0.66630
C          C       0.71000   0.60640   0.64380
H          H       0.70970   0.59680   0.60590
C          C       0.74640   0.65150   0.65880
H          H       0.76930   0.67160   0.63170
C          C       0.71840   0.63620   0.74920
H          H       0.72130   0.64360   0.78830
C          C       0.58950   0.47750   0.34190
H          H       0.61430   0.50350   0.32190
O          O       0.59660   0.48300   0.72476
O          O       0.53060   0.41040   0.72430
H          H       0.58475   0.42906   0.60975
O          O       0.88029   0.44381   0.11134
N          N       0.88700   0.44230  -0.06740
N          N       0.89960   0.57540   0.17730
O          O       0.81830   0.38150   0.02200
O          O       0.63400   0.14740   0.02160
O          O       0.73411   0.26142   0.06270
C          C       0.88410   0.43700  -0.25160
N          N       0.87180   0.32020   0.18460
O          O       0.81430   0.34050   0.10270
O          O       0.66750   0.17250   0.10770
C          C       0.88540   0.43870  -0.18730
C          C       0.89810   0.20490   0.23050
C          C       0.88820   0.24560   0.21600
C          C       0.91830   0.66710   0.21390
C          C       0.73270   0.29660  -0.01790
H          H       0.74040   0.31980  -0.04660
C          C       0.92840   0.71650   0.23190
C          C       0.90660   0.32750   0.22180
H          H       0.92520   0.35830   0.23790
C          C       0.91060   0.59110   0.23040
H          H       0.91380   0.57110   0.25720
C          C       0.84280   0.27530   0.16520
H          H       0.81700   0.26950   0.14100
C          C       0.66290   0.17850   0.05480
C          C       0.79980   0.34440   0.05370
C          C       0.88850   0.47760  -0.09970
H          H       0.89010   0.50430  -0.08100
C          C       0.69530   0.22810   0.02950
C          C       0.88520   0.40620  -0.09710
H          H       0.88660   0.38160  -0.07700
C          C       0.69340   0.24750  -0.01870
H          H       0.67080   0.23240  -0.04810
C          C       0.75600   0.30280   0.03120
C          C       0.88140   0.40240  -0.15420
H          H       0.87590   0.37360  -0.17150
C          C       0.91630   0.29190   0.23740
H          H       0.94190   0.29880   0.26250
C          C       0.84990   0.23620   0.18020
H          H       0.82920   0.20490   0.16630
C          C       0.89630   0.60640   0.14380
H          H       0.88700   0.59680   0.10590
C          C       0.90520   0.65150   0.15880
H          H       0.90240   0.67160   0.13170
C          C       0.91770   0.63620   0.24920
H          H       0.92220   0.64360   0.28830
C          C       0.88790   0.47750  -0.15810
H          H       0.88910   0.50350  -0.17810
O          O       0.85260   0.48670   0.02160
O          O       0.82750   0.49510   0.10770
H          H       0.84430   0.42906   0.10975
O          O       0.56351   0.11971   0.11134
N          N       0.55520   0.11300  -0.06740
N          N       0.67570   0.10040   0.17730
O          O       0.56310   0.18170   0.02200
O          O       0.51330   0.36600   0.02160
O          O       0.52730   0.26589   0.06270
C          C       0.55280   0.11590  -0.25160
N          N       0.44830   0.12820   0.18460
O          O       0.52610   0.18570   0.10270
O          O       0.50490   0.33250   0.10770
C          C       0.55320   0.11460  -0.18730
C          C       0.30690   0.10190   0.23050
C          C       0.35750   0.11180   0.21600
C          C       0.74890   0.08170   0.21390
C          C       0.56380   0.26730  -0.01790
H          H       0.57930   0.25960  -0.04660
C          C       0.78820   0.07160   0.23190
C          C       0.42080   0.09340   0.22180
H          H       0.43300   0.07480   0.23790
C          C       0.68040   0.08940   0.23040
H          H       0.65720   0.08620   0.25720
C          C       0.43240   0.15720   0.16520
H          H       0.45240   0.18300   0.14100
C          C       0.51550   0.33710   0.05480
C          C       0.54450   0.20020   0.05370
C          C       0.58900   0.11150  -0.09970
H          H       0.61410   0.10990  -0.08100
C          C       0.53270   0.30470   0.02950
C          C       0.52090   0.11480  -0.09710
H          H       0.49490   0.11340  -0.07700
C          C       0.55400   0.30660  -0.01870
H          H       0.56150   0.32920  -0.04810
C          C       0.54670   0.24400   0.03120
C          C       0.52090   0.11860  -0.15420
H          H       0.49760   0.12410  -0.17150
C          C       0.37550   0.08370   0.23740
H          H       0.35680   0.05810   0.26250
C          C       0.38620   0.15010   0.18020
H          H       0.37560   0.17080   0.16630
C          C       0.71000   0.10370   0.14380
H          H       0.70970   0.11300   0.10590
C          C       0.74640   0.09480   0.15880
H          H       0.76930   0.09760   0.13170
C          C       0.71840   0.08230   0.24920
H          H       0.72130   0.07780   0.28830
C          C       0.58950   0.11210  -0.15810
H          H       0.61430   0.11090  -0.17810
H          H       0.58475   0.15570   0.10975
O          O       0.55619   0.43649   0.11134
N          N       0.55770   0.44480  -0.06740
N          N       0.42460   0.32430   0.17730
O          O       0.61850   0.43690   0.02200
O          O       0.73858   0.47270   0.06270
C          C       0.56300   0.44720  -0.25160
N          N       0.67980   0.55170   0.18460
O          O       0.65950   0.47390   0.10270
C          C       0.56130   0.44680  -0.18730
C          C       0.79510   0.69310   0.23050
C          C       0.75440   0.64250   0.21600
C          C       0.33290   0.25110   0.21390
C          C       0.70340   0.43620  -0.01790
H          H       0.68020   0.42070  -0.04660
C          C       0.28350   0.21180   0.23190
C          C       0.67250   0.57920   0.22180
H          H       0.64170   0.56700   0.23790
C          C       0.40890   0.31960   0.23040
H          H       0.42890   0.34280   0.25720
C          C       0.72470   0.56760   0.16520
H          H       0.73050   0.54760   0.14100
C          C       0.82150   0.48450   0.05480
C          C       0.65560   0.45550   0.05370
C          C       0.52240   0.41100  -0.09970
H          H       0.49570   0.38590  -0.08100
C          C       0.77190   0.46730   0.02950
C          C       0.59380   0.47910  -0.09710
H          H       0.61840   0.50510  -0.07700
C          C       0.75250   0.44600  -0.01870
H          H       0.76760   0.43850  -0.04810
C          C       0.69720   0.45330   0.03120
C          C       0.59760   0.47910  -0.15420
H          H       0.62640   0.50240  -0.17150
C          C       0.70810   0.62450   0.23740
H          H       0.70120   0.64320   0.26250
C          C       0.76380   0.61380   0.18020
H          H       0.79510   0.62440   0.16630
C          C       0.39360   0.29000   0.14380
H          H       0.40320   0.29030   0.10590
C          C       0.34850   0.25360   0.15880
H          H       0.32840   0.23070   0.13170
C          C       0.36380   0.28160   0.24920
H          H       0.35640   0.27870   0.28830
C          C       0.52250   0.41050  -0.15810
H          H       0.49650   0.38570  -0.17810
H          H       0.57094   0.41525   0.10975
