
#######################################################################
#
#                 Cambridge Crystallographic Data Centre
#                                CCDC 
#
#######################################################################
#
# If this CIF has been generated from an entry in the Cambridge 
# Structural Database, then it will include bibliographic, chemical, 
# crystal, experimental, refinement or atomic coordinate data resulting 
# from the CCDC's data processing and validation procedures.
#
#######################################################################

data_shelxl
_symmetry_cell_setting           orthorhombic
_symmetry_space_group_name_H-M   'P n m a'
_symmetry_Int_Tables_number      62
_space_group_name_Hall           '-P 2ac 2n'
loop_
_symmetry_equiv_pos_site_id
_symmetry_equiv_pos_as_xyz
1 x,y,z
2 1/2-x,-y,1/2+z
3 -x,1/2+y,-z
4 1/2+x,1/2-y,1/2-z
5 -x,-y,-z
6 1/2+x,y,1/2-z
7 x,1/2-y,z
8 1/2-x,1/2+y,1/2+z
_cell_length_a                   6.7507(10)
_cell_length_b                   16.9798(13)
_cell_length_c                   12.9232(7)
_cell_angle_alpha                90.00
_cell_angle_beta                 90.00
_cell_angle_gamma                90.00
_cell_volume                     1481.33
loop_
_atom_site_label
_atom_site_type_symbol
_atom_site_fract_x
_atom_site_fract_y
_atom_site_fract_z
V1 V 0.7047(2) 0.2500 0.26655(10)
O1 O 0.6529(6) 0.1664(2) 0.1643(3)
O3 O 0.3222(6) 0.1674(2) 0.1465(3)
O2 O 0.4825(8) 0.2500 0.3134(4)
C1 C 0.5020(10) 0.0660(3) 0.0637(4)
C2 C 0.6598(10) 0.0114(4) 0.0709(5)
C3 C 0.3487(10) 0.0522(4) -0.0045(5)
H3 H 0.2444 0.0879 -0.0059
C4 C 0.4925(12) 0.1392(4) 0.1289(4)
C5 C 0.8310(10) 0.0185(4) 0.1465(5)
H5A H 0.8161 0.0658 0.1864
H5B H 0.9535 0.0205 0.1089
H5C H 0.8315 -0.0262 0.1919
O1 O 0.3471(6) -0.1664(2) -0.1643(3)
C1 C 0.4980(10) -0.0660(3) -0.0637(4)
C2 C 0.3402(10) -0.0114(4) -0.0709(5)
C3 C 0.6513(10) -0.0522(4) 0.0045(5)
H3 H 0.7556 -0.0879 0.0059
C4 C 0.5075(12) -0.1392(4) -0.1289(4)
C5 C 0.1690(10) -0.0185(4) -0.1465(5)
H5A H 0.1839 -0.0658 -0.1864
H5B H 0.0465 -0.0205 -0.1089
H5C H 0.1685 0.0262 -0.1919
O3 O 0.6778(6) -0.1674(2) -0.1465(3)
V1 V 0.7953(2) -0.2500 -0.23345(10)
V1 V 0.2953(2) -0.2500 -0.26655(10)
V1 V 0.2047(2) 0.2500 0.23345(10)
O1 O 0.6529(6) 0.3336(2) 0.1643(3)
O3 O 0.8222(6) 0.3326(2) 0.3535(3)
O3 O 0.8222(6) 0.1674(2) 0.3535(3)
O2 O 0.9825(8) 0.2500 0.1866(4)
V1 V 0.7953(2) 0.7500 0.76655(10)
O1 O 0.8471(6) 0.8336(2) 0.6643(3)
O3 O 1.1778(6) 0.8326(2) 0.6465(3)
O2 O 1.0175(8) 0.7500 0.8134(4)
C1 C 0.9980(10) 0.9340(3) 0.5637(4)
C2 C 0.8402(10) 0.9886(4) 0.5709(5)
C3 C 1.1513(10) 0.9478(4) 0.4955(5)
H3 H 1.2556 0.9121 0.4941
C4 C 1.0075(12) 0.8608(4) 0.6289(4)
C5 C 0.6690(10) 0.9815(4) 0.6465(5)
H5A H 0.6839 0.9342 0.6864
H5B H 0.5465 0.9795 0.6089
H5C H 0.6685 1.0262 0.6919
O1 O 1.1529(6) 1.1664(2) 0.3357(3)
C1 C 1.0020(10) 1.0660(3) 0.4363(4)
C2 C 1.1598(10) 1.0114(4) 0.4291(5)
C3 C 0.8487(10) 1.0522(4) 0.5045(5)
H3 H 0.7444 1.0879 0.5059
C4 C 0.9925(12) 1.1392(4) 0.3711(4)
C5 C 1.3310(10) 1.0185(4) 0.3535(5)
H5A H 1.3161 1.0658 0.3136
H5B H 1.4535 1.0205 0.3911
H5C H 1.3315 0.9738 0.3081
O3 O 0.8222(6) 1.1674(2) 0.3535(3)
V1 V 0.7047(2) 1.2500 0.26655(10)
V1 V 1.2047(2) 1.2500 0.23345(10)
V1 V 1.2953(2) 0.7500 0.73345(10)
O1 O 0.8471(6) 0.6664(2) 0.6643(3)
O3 O 0.6778(6) 0.6674(2) 0.8535(3)
O3 O 0.6778(6) 0.8326(2) 0.8535(3)
O2 O 0.5175(8) 0.7500 0.6866(4)
V1 V 0.2953(2) 0.7500 0.73345(10)
O1 O 0.3471(6) 0.6664(2) 0.8357(3)
C1 C 0.4980(10) 0.5660(3) 0.9363(4)
C2 C 0.3402(10) 0.5114(4) 0.9291(5)
C3 C 0.6513(10) 0.5522(4) 1.0045(5)
H3 H 0.7556 0.5879 1.0059
C4 C 0.5075(12) 0.6392(4) 0.8711(4)
C5 C 0.1690(10) 0.5185(4) 0.8535(5)
H5A H 0.1839 0.5658 0.8136
H5B H 0.0465 0.5205 0.8911
H5C H 0.1685 0.4738 0.8081
O1 O 0.6529(6) 0.3336(2) 1.1643(3)
C1 C 0.5020(10) 0.4340(3) 1.0637(4)
C2 C 0.6598(10) 0.4886(4) 1.0709(5)
C3 C 0.3487(10) 0.4478(4) 0.9955(5)
H3 H 0.2444 0.4121 0.9941
C4 C 0.4925(12) 0.3608(4) 1.1289(4)
C5 C 0.8310(10) 0.4815(4) 1.1465(5)
H5A H 0.8161 0.4342 1.1864
H5B H 0.9535 0.4795 1.1089
H5C H 0.8315 0.5262 1.1919
O3 O 0.3222(6) 0.3326(2) 1.1465(3)
V1 V 0.2047(2) 0.2500 1.23345(10)
V1 V 0.7047(2) 0.2500 1.26655(10)
O1 O 0.3471(6) 0.8336(2) 0.8357(3)
O3 O 0.1778(6) 0.8326(2) 0.6465(3)
O3 O 0.1778(6) 0.6674(2) 0.6465(3)
O2 O 0.0175(8) 0.7500 0.8134(4)
O1 O 0.1529(6) 0.3336(2) 0.3357(3)
O3 O -0.1778(6) 0.3326(2) 0.3535(3)
O2 O -0.0175(8) 0.2500 0.1866(4)
C1 C 0.0020(10) 0.4340(3) 0.4363(4)
C2 C 0.1598(10) 0.4886(4) 0.4291(5)
C3 C -0.1513(10) 0.4478(4) 0.5045(5)
H3 H -0.2556 0.4121 0.5059
C4 C -0.0075(12) 0.3608(4) 0.3711(4)
C5 C 0.3310(10) 0.4815(4) 0.3535(5)
H5A H 0.3161 0.4342 0.3136
H5B H 0.4535 0.4795 0.3911
H5C H 0.3315 0.5262 0.3081
O1 O -0.1529(6) 0.6664(2) 0.6643(3)
C1 C -0.0020(10) 0.5660(3) 0.5637(4)
C2 C -0.1598(10) 0.5114(4) 0.5709(5)
C3 C 0.1513(10) 0.5522(4) 0.4955(5)
H3 H 0.2556 0.5879 0.4941
C4 C 0.0075(12) 0.6392(4) 0.6289(4)
C5 C -0.3310(10) 0.5185(4) 0.6465(5)
H5A H -0.3161 0.5658 0.6864
H5B H -0.4535 0.5205 0.6089
H5C H -0.3315 0.4738 0.6919
V1 V -0.2047(2) 0.7500 0.76655(10)
V1 V -0.2953(2) 0.2500 0.26655(10)
O1 O 0.1529(6) 0.1664(2) 0.3357(3)
O3 O 0.3222(6) 0.3326(2) 0.1465(3)
C1 C 0.4980(10) 0.9340(3) 0.9363(4)
C2 C 0.3402(10) 0.9886(4) 0.9291(5)
C3 C 0.6513(10) 0.9478(4) 1.0045(5)
H3 H 0.7556 0.9121 1.0059
C4 C 0.5075(12) 0.8608(4) 0.8711(4)
C5 C 0.1690(10) 0.9815(4) 0.8535(5)
H5A H 0.1839 0.9342 0.8136
H5B H 0.0465 0.9795 0.8911
H5C H 0.1685 1.0262 0.8081
O1 O 0.6529(6) 1.1664(2) 1.1643(3)
C1 C 0.5020(10) 1.0660(3) 1.0637(4)
C2 C 0.6598(10) 1.0114(4) 1.0709(5)
C3 C 0.3487(10) 1.0522(4) 0.9955(5)
H3 H 0.2444 1.0879 0.9941
C4 C 0.4925(12) 1.1392(4) 1.1289(4)
C5 C 0.8310(10) 1.0185(4) 1.1465(5)
H5A H 0.8161 1.0658 1.1864
H5B H 0.9535 1.0205 1.1089
H5C H 0.8315 0.9738 1.1919
O3 O 0.3222(6) 1.1674(2) 1.1465(3)
V1 V 0.2047(2) 1.2500 1.23345(10)
V1 V 0.7047(2) 1.2500 1.26655(10)
O3 O -0.1778(6) 0.1674(2) 0.3535(3)
C1 C 0.0020(10) 0.0660(3) 0.4363(4)
C2 C 0.1598(10) 0.0114(4) 0.4291(5)
C3 C -0.1513(10) 0.0522(4) 0.5045(5)
H3 H -0.2556 0.0879 0.5059
C4 C -0.0075(12) 0.1392(4) 0.3711(4)
C5 C 0.3310(10) 0.0185(4) 0.3535(5)
H5A H 0.3161 0.0658 0.3136
H5B H 0.4535 0.0205 0.3911
H5C H 0.3315 -0.0262 0.3081
O1 O -0.1529(6) -0.1664(2) 0.6643(3)
C1 C -0.0020(10) -0.0660(3) 0.5637(4)
C2 C -0.1598(10) -0.0114(4) 0.5709(5)
C3 C 0.1513(10) -0.0522(4) 0.4955(5)
H3 H 0.2556 -0.0879 0.4941
C4 C 0.0075(12) -0.1392(4) 0.6289(4)
C5 C -0.3310(10) -0.0185(4) 0.6465(5)
H5A H -0.3161 -0.0658 0.6864
H5B H -0.4535 -0.0205 0.6089
H5C H -0.3315 0.0262 0.6919
O3 O 0.1778(6) -0.1674(2) 0.6465(3)
V1 V 0.2953(2) -0.2500 0.73345(10)
V1 V -0.2047(2) -0.2500 0.76655(10)
C1 C 0.5020(10) 0.4340(3) 0.0637(4)
C2 C 0.6598(10) 0.4886(4) 0.0709(5)
C3 C 0.3487(10) 0.4478(4) -0.0045(5)
H3 H 0.2444 0.4121 -0.0059
C4 C 0.4925(12) 0.3608(4) 0.1289(4)
C5 C 0.8310(10) 0.4815(4) 0.1465(5)
H5A H 0.8161 0.4342 0.1864
H5B H 0.9535 0.4795 0.1089
H5C H 0.8315 0.5262 0.1919
O1 O 0.3471(6) 0.6664(2) -0.1643(3)
C1 C 0.4980(10) 0.5660(3) -0.0637(4)
C2 C 0.3402(10) 0.5114(4) -0.0709(5)
C3 C 0.6513(10) 0.5522(4) 0.0045(5)
H3 H 0.7556 0.5879 0.0059
C4 C 0.5075(12) 0.6392(4) -0.1289(4)
C5 C 0.1690(10) 0.5185(4) -0.1465(5)
H5A H 0.1839 0.5658 -0.1864
H5B H 0.0465 0.5205 -0.1089
H5C H 0.1685 0.4738 -0.1919
O3 O 0.6778(6) 0.6674(2) -0.1465(3)
V1 V 0.7953(2) 0.7500 -0.23345(10)
V1 V 0.2953(2) 0.7500 -0.26655(10)
O3 O 1.1778(6) 0.6674(2) 0.6465(3)
C1 C 0.9980(10) 0.5660(3) 0.5637(4)
C2 C 0.8402(10) 0.5114(4) 0.5709(5)
C3 C 1.1513(10) 0.5522(4) 0.4955(5)
H3 H 1.2556 0.5879 0.4941
C4 C 1.0075(12) 0.6392(4) 0.6289(4)
C5 C 0.6690(10) 0.5185(4) 0.6465(5)
H5A H 0.6839 0.5658 0.6864
H5B H 0.5465 0.5205 0.6089
H5C H 0.6685 0.4738 0.6919
O1 O 1.1529(6) 0.3336(2) 0.3357(3)
C1 C 1.0020(10) 0.4340(3) 0.4363(4)
C2 C 1.1598(10) 0.4886(4) 0.4291(5)
C3 C 0.8487(10) 0.4478(4) 0.5045(5)
H3 H 0.7444 0.4121 0.5059
C4 C 0.9925(12) 0.3608(4) 0.3711(4)
C5 C 1.3310(10) 0.4815(4) 0.3535(5)
H5A H 1.3161 0.4342 0.3136
H5B H 1.4535 0.4795 0.3911
H5C H 1.3315 0.5262 0.3081
V1 V 1.2047(2) 0.2500 0.23345(10)

#END
