data_crystal
 
_cell_length_a    18.62730
_cell_length_b    18.62730
_cell_length_c    18.62730
_cell_angle_alpha 60.00000
_cell_angle_beta  60.00000
_cell_angle_gamma 60.00000
 
_symmetry_space_group_name_Hall 'P 1'
_symmetry_space_group_name_H-M  'P 1'
 
loop_
_symmetry_equiv_pos_as_xyz
 'x,y,z' 
 
loop_
_atom_site_label
_atom_site_type_symbol
_atom_site_fract_x
_atom_site_fract_y
_atom_site_fract_z
_atom_site_charge
Cu         Cu      0.07057   0.50000   0.92943   0.0000000000
Cu         Cu      0.50000   0.07057   0.50000   0.0000000000
Cu         Cu      0.92943   0.50000   0.07057   0.0000000000
Cu         Cu      0.50000   0.92943   0.50000   0.0000000000
Cu         Cu      0.07057   0.92943   0.50000   0.0000000000
Cu         Cu      0.50000   0.50000   0.92943   0.0000000000
Cu         Cu      0.92943   0.07057   0.50000   0.0000000000
Cu         Cu      0.50000   0.50000   0.07057   0.0000000000
Cu         Cu      0.07057   0.50000   0.50000   0.0000000000
Cu         Cu      0.50000   0.92943   0.07057   0.0000000000
Cu         Cu      0.92943   0.50000   0.50000   0.0000000000
Cu         Cu      0.50000   0.07057   0.92943   0.0000000000
H          H       0.22800   0.22800   0.01160   0.0000000000
H          H       0.22800   0.22800   0.53240   0.0000000000
H          H       0.01160   0.53240   0.22800   0.0000000000
H          H       0.53240   0.01160   0.22800   0.0000000000
H          H       0.22800   0.01160   0.53240   0.0000000000
H          H       0.22800   0.53240   0.01160   0.0000000000
H          H       0.01160   0.22800   0.22800   0.0000000000
H          H       0.53240   0.22800   0.22800   0.0000000000
H          H       0.22800   0.53240   0.22800   0.0000000000
H          H       0.22800   0.01160   0.22800   0.0000000000
H          H       0.01160   0.22800   0.53240   0.0000000000
H          H       0.53240   0.22800   0.01160   0.0000000000
H          H       0.77200   0.77200   0.98840   0.0000000000
H          H       0.77200   0.77200   0.46760   0.0000000000
H          H       0.46760   0.98840   0.77200   0.0000000000
H          H       0.98840   0.46760   0.77200   0.0000000000
H          H       0.98840   0.77200   0.46760   0.0000000000
H          H       0.46760   0.77200   0.98840   0.0000000000
H          H       0.77200   0.98840   0.77200   0.0000000000
H          H       0.77200   0.46760   0.77200   0.0000000000
H          H       0.46760   0.77200   0.77200   0.0000000000
H          H       0.98840   0.77200   0.77200   0.0000000000
H          H       0.77200   0.98840   0.46760   0.0000000000
H          H       0.77200   0.46760   0.98840   0.0000000000
C          C       0.75700   0.46900   0.88700   0.0000000000
C          C       0.46900   0.75700   0.88700   0.0000000000
C          C       0.88700   0.88700   0.75700   0.0000000000
C          C       0.88700   0.88700   0.46900   0.0000000000
C          C       0.75700   0.88700   0.88700   0.0000000000
C          C       0.46900   0.88700   0.88700   0.0000000000
C          C       0.88700   0.75700   0.46900   0.0000000000
C          C       0.88700   0.46900   0.75700   0.0000000000
C          C       0.75700   0.88700   0.46900   0.0000000000
C          C       0.46900   0.88700   0.75700   0.0000000000
C          C       0.88700   0.46900   0.88700   0.0000000000
C          C       0.88700   0.75700   0.88700   0.0000000000
C          C       0.53100   0.24300   0.11300   0.0000000000
C          C       0.24300   0.53100   0.11300   0.0000000000
C          C       0.11300   0.11300   0.24300   0.0000000000
C          C       0.11300   0.11300   0.53100   0.0000000000
C          C       0.11300   0.24300   0.11300   0.0000000000
C          C       0.11300   0.53100   0.11300   0.0000000000
C          C       0.24300   0.11300   0.53100   0.0000000000
C          C       0.53100   0.11300   0.24300   0.0000000000
C          C       0.11300   0.24300   0.53100   0.0000000000
C          C       0.11300   0.53100   0.24300   0.0000000000
C          C       0.53100   0.11300   0.11300   0.0000000000
C          C       0.24300   0.11300   0.11300   0.0000000000
C          C       0.06870   0.06870   0.33770   0.0000000000
C          C       0.06870   0.06870   0.52490   0.0000000000
C          C       0.33770   0.52490   0.06870   0.0000000000
C          C       0.52490   0.33770   0.06870   0.0000000000
C          C       0.06870   0.33770   0.52490   0.0000000000
C          C       0.06870   0.52490   0.33770   0.0000000000
C          C       0.33770   0.06870   0.06870   0.0000000000
C          C       0.52490   0.06870   0.06870   0.0000000000
C          C       0.06870   0.52490   0.06870   0.0000000000
C          C       0.06870   0.33770   0.06870   0.0000000000
C          C       0.33770   0.06870   0.52490   0.0000000000
C          C       0.52490   0.06870   0.33770   0.0000000000
C          C       0.93130   0.93130   0.66230   0.0000000000
C          C       0.93130   0.93130   0.47510   0.0000000000
C          C       0.47510   0.66230   0.93130   0.0000000000
C          C       0.66230   0.47510   0.93130   0.0000000000
C          C       0.66230   0.93130   0.47510   0.0000000000
C          C       0.47510   0.93130   0.66230   0.0000000000
C          C       0.93130   0.66230   0.93130   0.0000000000
C          C       0.93130   0.47510   0.93130   0.0000000000
C          C       0.47510   0.93130   0.93130   0.0000000000
C          C       0.66230   0.93130   0.93130   0.0000000000
C          C       0.93130   0.66230   0.47510   0.0000000000
C          C       0.93130   0.47510   0.66230   0.0000000000
C          C       0.80060   0.46840   0.93040   0.0000000000
C          C       0.46840   0.80060   0.80060   0.0000000000
C          C       0.93040   0.80060   0.80060   0.0000000000
C          C       0.80060   0.93040   0.46840   0.0000000000
C          C       0.80060   0.93040   0.80060   0.0000000000
C          C       0.46840   0.80060   0.93040   0.0000000000
C          C       0.93040   0.80060   0.46840   0.0000000000
C          C       0.80060   0.46840   0.80060   0.0000000000
C          C       0.80060   0.80060   0.46840   0.0000000000
C          C       0.46840   0.93040   0.80060   0.0000000000
C          C       0.93040   0.46840   0.80060   0.0000000000
C          C       0.80060   0.80060   0.93040   0.0000000000
C          C       0.53160   0.19940   0.06960   0.0000000000
C          C       0.19940   0.53160   0.19940   0.0000000000
C          C       0.19940   0.06960   0.19940   0.0000000000
C          C       0.06960   0.19940   0.53160   0.0000000000
C          C       0.06960   0.19940   0.19940   0.0000000000
C          C       0.19940   0.53160   0.06960   0.0000000000
C          C       0.19940   0.06960   0.53160   0.0000000000
C          C       0.53160   0.19940   0.19940   0.0000000000
C          C       0.19940   0.19940   0.53160   0.0000000000
C          C       0.06960   0.53160   0.19940   0.0000000000
C          C       0.53160   0.06960   0.19940   0.0000000000
C          C       0.19940   0.19940   0.06960   0.0000000000
O          O       0.11201   0.99247   0.37425   0.0000000000
O          O       0.99247   0.11201   0.52127   0.0000000000
O          O       0.37425   0.52127   0.11201   0.0000000000
O          O       0.52127   0.37425   0.99247   0.0000000000
O          O       0.11201   0.37425   0.52127   0.0000000000
O          O       0.99247   0.52127   0.37425   0.0000000000
O          O       0.37425   0.11201   0.99247   0.0000000000
O          O       0.52127   0.99247   0.11201   0.0000000000
O          O       0.11201   0.52127   0.99247   0.0000000000
O          O       0.99247   0.37425   0.11201   0.0000000000
O          O       0.37425   0.99247   0.52127   0.0000000000
O          O       0.52127   0.11201   0.37425   0.0000000000
O          O       0.00753   0.88799   0.62575   0.0000000000
O          O       0.88799   0.00753   0.47873   0.0000000000
O          O       0.47873   0.62575   0.88799   0.0000000000
O          O       0.62575   0.47873   0.00753   0.0000000000
O          O       0.62575   0.88799   0.47873   0.0000000000
O          O       0.47873   0.00753   0.62575   0.0000000000
O          O       0.88799   0.62575   0.00753   0.0000000000
O          O       0.00753   0.47873   0.88799   0.0000000000
O          O       0.47873   0.88799   0.00753   0.0000000000
O          O       0.62575   0.00753   0.88799   0.0000000000
O          O       0.00753   0.62575   0.47873   0.0000000000
O          O       0.88799   0.47873   0.62575   0.0000000000
O          O       0.88799   0.00753   0.62575   0.0000000000
O          O       0.00753   0.88799   0.47873   0.0000000000
O          O       0.62575   0.47873   0.88799   0.0000000000
O          O       0.47873   0.62575   0.00753   0.0000000000
O          O       0.88799   0.62575   0.47873   0.0000000000
O          O       0.00753   0.47873   0.62575   0.0000000000
O          O       0.62575   0.88799   0.00753   0.0000000000
O          O       0.47873   0.00753   0.88799   0.0000000000
O          O       0.88799   0.47873   0.00753   0.0000000000
O          O       0.00753   0.62575   0.88799   0.0000000000
O          O       0.62575   0.00753   0.47873   0.0000000000
O          O       0.47873   0.88799   0.62575   0.0000000000
O          O       0.99247   0.11201   0.37425   0.0000000000
O          O       0.11201   0.99247   0.52127   0.0000000000
O          O       0.52127   0.37425   0.11201   0.0000000000
O          O       0.37425   0.52127   0.99247   0.0000000000
O          O       0.37425   0.11201   0.52127   0.0000000000
O          O       0.52127   0.99247   0.37425   0.0000000000
O          O       0.11201   0.37425   0.99247   0.0000000000
O          O       0.99247   0.52127   0.11201   0.0000000000
O          O       0.52127   0.11201   0.99247   0.0000000000
O          O       0.37425   0.99247   0.11201   0.0000000000
O          O       0.99247   0.37425   0.52127   0.0000000000
O          O       0.11201   0.52127   0.37425   0.0000000000
