data_crystal

_cell_length_a    41.82750
_cell_length_b    41.82750
_cell_length_c    41.82750
_cell_angle_alpha 60.00000
_cell_angle_beta  60.00000
_cell_angle_gamma 60.00000

_space_group_name_Hall 'P 1'
_space_group_name_H-M_alt 'P 1'

loop_
_symmetry_equiv_pos_as_xyz
 'x,y,z'

loop_
_atom_site_label
_atom_site_type_symbol
_atom_site_fract_x
_atom_site_fract_y
_atom_site_fract_z
Cu         Cu      0.30926   0.50000   0.50000
Cu         Cu      0.24600   0.50000   0.50000
Cu         Cu      0.50000   0.30926   0.69074
Cu         Cu      0.50000   0.24600   0.75400
Cu         Cu      0.50000   0.69074   0.30926
Cu         Cu      0.50000   0.75400   0.24600
Cu         Cu      0.69074   0.50000   0.50000
Cu         Cu      0.75400   0.50000   0.50000
Cu         Cu      0.30926   0.50000   0.69074
Cu         Cu      0.24600   0.50000   0.75400
Cu         Cu      0.50000   0.69074   0.50000
Cu         Cu      0.50000   0.75400   0.50000
Cu         Cu      0.50000   0.30926   0.50000
Cu         Cu      0.50000   0.24600   0.50000
Cu         Cu      0.69074   0.50000   0.30926
Cu         Cu      0.75400   0.50000   0.24600
Cu         Cu      0.30926   0.69074   0.50000
Cu         Cu      0.24600   0.75400   0.50000
Cu         Cu      0.50000   0.50000   0.30926
Cu         Cu      0.50000   0.50000   0.24600
Cu         Cu      0.50000   0.50000   0.69074
Cu         Cu      0.50000   0.50000   0.75400
Cu         Cu      0.69074   0.30926   0.50000
Cu         Cu      0.75400   0.24600   0.50000
H          H       0.18090   0.47610   0.62310
H          H       0.06870   0.45150   0.69150
H          H       0.00880   0.44040   0.72700
H          H       0.47610   0.18090   0.71990
H          H       0.45150   0.06870   0.78830
H          H       0.44040   0.00880   0.82380
H          H       0.62310   0.71990   0.18090
H          H       0.69150   0.78830   0.06870
H          H       0.72700   0.82380   0.00880
H          H       0.71990   0.62310   0.47610
H          H       0.78830   0.69150   0.45150
H          H       0.82380   0.72700   0.44040
H          H       0.18090   0.62310   0.71990
H          H       0.06870   0.69150   0.78830
H          H       0.00880   0.72700   0.82380
H          H       0.47610   0.71990   0.62310
H          H       0.45150   0.78830   0.69150
H          H       0.44040   0.82380   0.72700
H          H       0.62310   0.18090   0.47610
H          H       0.69150   0.06870   0.45150
H          H       0.72700   0.00880   0.44040
H          H       0.71990   0.47610   0.18090
H          H       0.78830   0.45150   0.06870
H          H       0.82380   0.44040   0.00880
H          H       0.18090   0.71990   0.47610
H          H       0.06870   0.78830   0.45150
H          H       0.00880   0.82380   0.44040
H          H       0.47610   0.62310   0.18090
H          H       0.45150   0.69150   0.06870
H          H       0.44040   0.72700   0.00880
H          H       0.62310   0.47610   0.71990
H          H       0.69150   0.45150   0.78830
H          H       0.72700   0.44040   0.82380
H          H       0.71990   0.18090   0.62310
H          H       0.78830   0.06870   0.69150
H          H       0.82380   0.00880   0.72700
H          H       0.52390   0.81910   0.37690
H          H       0.54850   0.93130   0.30850
H          H       0.55960   0.99120   0.27300
H          H       0.81910   0.52390   0.28010
H          H       0.93130   0.54850   0.21170
H          H       0.99120   0.55960   0.17620
H          H       0.28010   0.37690   0.81910
H          H       0.21170   0.30850   0.93130
H          H       0.17620   0.27300   0.99120
H          H       0.37690   0.28010   0.52390
H          H       0.30850   0.21170   0.54850
H          H       0.27300   0.17620   0.55960
H          H       0.37690   0.81910   0.28010
H          H       0.30850   0.93130   0.21170
H          H       0.27300   0.99120   0.17620
H          H       0.28010   0.52390   0.37690
H          H       0.21170   0.54850   0.30850
H          H       0.17620   0.55960   0.27300
H          H       0.81910   0.37690   0.52390
H          H       0.93130   0.30850   0.54850
H          H       0.99120   0.27300   0.55960
H          H       0.52390   0.28010   0.81910
H          H       0.54850   0.21170   0.93130
H          H       0.55960   0.17620   0.99120
H          H       0.28010   0.81910   0.52390
H          H       0.21170   0.93130   0.54850
H          H       0.17620   0.99120   0.55960
H          H       0.37690   0.52390   0.81910
H          H       0.30850   0.54850   0.93130
H          H       0.27300   0.55960   0.99120
H          H       0.52390   0.37690   0.28010
H          H       0.54850   0.30850   0.21170
H          H       0.55960   0.27300   0.17620
H          H       0.81910   0.28010   0.37690
H          H       0.93130   0.21170   0.30850
H          H       0.99120   0.17620   0.27300
H          H       0.81910   0.52390   0.37690
H          H       0.93130   0.54850   0.30850
H          H       0.99120   0.55960   0.27300
H          H       0.52390   0.81910   0.28010
H          H       0.54850   0.93130   0.21170
H          H       0.55960   0.99120   0.17620
H          H       0.37690   0.28010   0.81910
H          H       0.30850   0.21170   0.93130
H          H       0.27300   0.17620   0.99120
H          H       0.28010   0.37690   0.52390
H          H       0.21170   0.30850   0.54850
H          H       0.17620   0.27300   0.55960
H          H       0.81910   0.37690   0.28010
H          H       0.93130   0.30850   0.21170
H          H       0.99120   0.27300   0.17620
H          H       0.52390   0.28010   0.37690
H          H       0.54850   0.21170   0.30850
H          H       0.55960   0.17620   0.27300
H          H       0.37690   0.81910   0.52390
H          H       0.30850   0.93130   0.54850
H          H       0.27300   0.99120   0.55960
H          H       0.28010   0.52390   0.81910
H          H       0.21170   0.54850   0.93130
H          H       0.17620   0.55960   0.99120
H          H       0.81910   0.28010   0.52390
H          H       0.93130   0.21170   0.54850
H          H       0.99120   0.17620   0.55960
H          H       0.52390   0.37690   0.81910
H          H       0.54850   0.30850   0.93130
H          H       0.55960   0.27300   0.99120
H          H       0.37690   0.52390   0.28010
H          H       0.30850   0.54850   0.21170
H          H       0.27300   0.55960   0.17620
H          H       0.28010   0.81910   0.37690
H          H       0.21170   0.93130   0.30850
H          H       0.17620   0.99120   0.27300
H          H       0.47610   0.18090   0.62310
H          H       0.45150   0.06870   0.69150
H          H       0.44040   0.00880   0.72700
H          H       0.18090   0.47610   0.71990
H          H       0.06870   0.45150   0.78830
H          H       0.00880   0.44040   0.82380
H          H       0.71990   0.62310   0.18090
H          H       0.78830   0.69150   0.06870
H          H       0.82380   0.72700   0.00880
H          H       0.62310   0.71990   0.47610
H          H       0.69150   0.78830   0.45150
H          H       0.72700   0.82380   0.44040
H          H       0.62310   0.18090   0.71990
H          H       0.69150   0.06870   0.78830
H          H       0.72700   0.00880   0.82380
H          H       0.71990   0.47610   0.62310
H          H       0.78830   0.45150   0.69150
H          H       0.82380   0.44040   0.72700
H          H       0.18090   0.62310   0.47610
H          H       0.06870   0.69150   0.45150
H          H       0.00880   0.72700   0.44040
H          H       0.47610   0.71990   0.18090
H          H       0.45150   0.78830   0.06870
H          H       0.44040   0.82380   0.00880
H          H       0.71990   0.18090   0.47610
H          H       0.78830   0.06870   0.45150
H          H       0.82380   0.00880   0.44040
H          H       0.62310   0.47610   0.18090
H          H       0.69150   0.45150   0.06870
H          H       0.72700   0.44040   0.00880
H          H       0.47610   0.62310   0.71990
H          H       0.45150   0.69150   0.78830
H          H       0.44040   0.72700   0.82380
H          H       0.18090   0.71990   0.62310
H          H       0.06870   0.78830   0.69150
H          H       0.00880   0.82380   0.72700
H          H       0.27090   0.49130   0.61890
H          H       0.49130   0.27090   0.61890
H          H       0.61890   0.61890   0.27090
H          H       0.61890   0.61890   0.49130
H          H       0.27090   0.61890   0.61890
H          H       0.49130   0.61890   0.61890
H          H       0.61890   0.27090   0.49130
H          H       0.61890   0.49130   0.27090
H          H       0.27090   0.61890   0.49130
H          H       0.49130   0.61890   0.27090
H          H       0.61890   0.49130   0.61890
H          H       0.61890   0.27090   0.61890
H          H       0.50870   0.72910   0.38110
H          H       0.72910   0.50870   0.38110
H          H       0.38110   0.38110   0.72910
H          H       0.38110   0.38110   0.50870
H          H       0.38110   0.72910   0.38110
H          H       0.38110   0.50870   0.38110
H          H       0.72910   0.38110   0.50870
H          H       0.50870   0.38110   0.72910
H          H       0.38110   0.72910   0.50870
H          H       0.38110   0.50870   0.72910
H          H       0.50870   0.38110   0.38110
H          H       0.72910   0.38110   0.38110
H          H       0.89200   0.42040   0.89200
H          H       0.42040   0.89200   0.79560
H          H       0.89200   0.79560   0.89200
H          H       0.79560   0.89200   0.42040
H          H       0.89200   0.89200   0.79560
H          H       0.42040   0.79560   0.89200
H          H       0.89200   0.89200   0.42040
H          H       0.79560   0.42040   0.89200
H          H       0.89200   0.79560   0.42040
H          H       0.42040   0.89200   0.89200
H          H       0.89200   0.42040   0.79560
H          H       0.79560   0.89200   0.89200
H          H       0.57960   0.10800   0.10800
H          H       0.10800   0.57960   0.20440
H          H       0.20440   0.10800   0.10800
H          H       0.10800   0.20440   0.57960
H          H       0.10800   0.10800   0.20440
H          H       0.20440   0.57960   0.10800
H          H       0.10800   0.10800   0.57960
H          H       0.57960   0.20440   0.10800
H          H       0.20440   0.10800   0.57960
H          H       0.10800   0.57960   0.10800
H          H       0.57960   0.10800   0.20440
H          H       0.10800   0.20440   0.10800
C          C       0.24770   0.48890   0.57210
C          C       0.22905   0.48475   0.61437
C          C       0.19325   0.47795   0.63563
C          C       0.05660   0.44920   0.71840
C          C       0.02090   0.44270   0.73950
C          C       0.48890   0.24770   0.69130
C          C       0.48475   0.22905   0.67183
C          C       0.47795   0.19325   0.69317
C          C       0.44920   0.05660   0.77580
C          C       0.44270   0.02090   0.79690
C          C       0.57210   0.69130   0.24770
C          C       0.61437   0.67183   0.22905
C          C       0.63563   0.69317   0.19325
C          C       0.71840   0.77580   0.05660
C          C       0.73950   0.79690   0.02090
C          C       0.69130   0.57210   0.48890
C          C       0.67183   0.61437   0.48475
C          C       0.69317   0.63563   0.47795
C          C       0.77580   0.71840   0.44920
C          C       0.79690   0.73950   0.44270
C          C       0.24770   0.57210   0.69130
C          C       0.22905   0.61437   0.67183
C          C       0.19325   0.63563   0.69317
C          C       0.05660   0.71840   0.77580
C          C       0.02090   0.73950   0.79690
C          C       0.48890   0.69130   0.57210
C          C       0.48475   0.67183   0.61437
C          C       0.47795   0.69317   0.63563
C          C       0.44920   0.77580   0.71840
C          C       0.44270   0.79690   0.73950
C          C       0.57210   0.24770   0.48890
C          C       0.61437   0.22905   0.48475
C          C       0.63563   0.19325   0.47795
C          C       0.71840   0.05660   0.44920
C          C       0.73950   0.02090   0.44270
C          C       0.69130   0.48890   0.24770
C          C       0.67183   0.48475   0.22905
C          C       0.69317   0.47795   0.19325
C          C       0.77580   0.44920   0.05660
C          C       0.79690   0.44270   0.02090
C          C       0.24770   0.69130   0.48890
C          C       0.22905   0.67183   0.48475
C          C       0.19325   0.69317   0.47795
C          C       0.05660   0.77580   0.44920
C          C       0.02090   0.79690   0.44270
C          C       0.48890   0.57210   0.24770
C          C       0.48475   0.61437   0.22905
C          C       0.47795   0.63563   0.19325
C          C       0.44920   0.71840   0.05660
C          C       0.44270   0.73950   0.02090
C          C       0.57210   0.48890   0.69130
C          C       0.61437   0.48475   0.67183
C          C       0.63563   0.47795   0.69317
C          C       0.71840   0.44920   0.77580
C          C       0.73950   0.44270   0.79690
C          C       0.69130   0.24770   0.57210
C          C       0.67183   0.22905   0.61437
C          C       0.69317   0.19325   0.63563
C          C       0.77580   0.05660   0.71840
C          C       0.79690   0.02090   0.73950
C          C       0.51110   0.75230   0.42790
C          C       0.51525   0.77095   0.38563
C          C       0.52205   0.80675   0.36437
C          C       0.55080   0.94340   0.28160
C          C       0.55730   0.97910   0.26050
C          C       0.75230   0.51110   0.30870
C          C       0.77095   0.51525   0.32817
C          C       0.80675   0.52205   0.30683
C          C       0.94340   0.55080   0.22420
C          C       0.97910   0.55730   0.20310
C          C       0.30870   0.42790   0.75230
C          C       0.32817   0.38563   0.77095
C          C       0.30683   0.36437   0.80675
C          C       0.22420   0.28160   0.94340
C          C       0.20310   0.26050   0.97910
C          C       0.42790   0.30870   0.51110
C          C       0.38563   0.32817   0.51525
C          C       0.36437   0.30683   0.52205
C          C       0.28160   0.22420   0.55080
C          C       0.26050   0.20310   0.55730
C          C       0.42790   0.75230   0.30870
C          C       0.38563   0.77095   0.32817
C          C       0.36437   0.80675   0.30683
C          C       0.28160   0.94340   0.22420
C          C       0.26050   0.97910   0.20310
C          C       0.30870   0.51110   0.42790
C          C       0.32817   0.51525   0.38563
C          C       0.30683   0.52205   0.36437
C          C       0.22420   0.55080   0.28160
C          C       0.20310   0.55730   0.26050
C          C       0.75230   0.42790   0.51110
C          C       0.77095   0.38563   0.51525
C          C       0.80675   0.36437   0.52205
C          C       0.94340   0.28160   0.55080
C          C       0.97910   0.26050   0.55730
C          C       0.51110   0.30870   0.75230
C          C       0.51525   0.32817   0.77095
C          C       0.52205   0.30683   0.80675
C          C       0.55080   0.22420   0.94340
C          C       0.55730   0.20310   0.97910
C          C       0.30870   0.75230   0.51110
C          C       0.32817   0.77095   0.51525
C          C       0.30683   0.80675   0.52205
C          C       0.22420   0.94340   0.55080
C          C       0.20310   0.97910   0.55730
C          C       0.42790   0.51110   0.75230
C          C       0.38563   0.51525   0.77095
C          C       0.36437   0.52205   0.80675
C          C       0.28160   0.55080   0.94340
C          C       0.26050   0.55730   0.97910
C          C       0.51110   0.42790   0.30870
C          C       0.51525   0.38563   0.32817
C          C       0.52205   0.36437   0.30683
C          C       0.55080   0.28160   0.22420
C          C       0.55730   0.26050   0.20310
C          C       0.75230   0.30870   0.42790
C          C       0.77095   0.32817   0.38563
C          C       0.80675   0.30683   0.36437
C          C       0.94340   0.22420   0.28160
C          C       0.97910   0.20310   0.26050
C          C       0.75230   0.51110   0.42790
C          C       0.77095   0.51525   0.38563
C          C       0.80675   0.52205   0.36437
C          C       0.94340   0.55080   0.28160
C          C       0.97910   0.55730   0.26050
C          C       0.51110   0.75230   0.30870
C          C       0.51525   0.77095   0.32817
C          C       0.52205   0.80675   0.30683
C          C       0.55080   0.94340   0.22420
C          C       0.55730   0.97910   0.20310
C          C       0.42790   0.30870   0.75230
C          C       0.38563   0.32817   0.77095
C          C       0.36437   0.30683   0.80675
C          C       0.28160   0.22420   0.94340
C          C       0.26050   0.20310   0.97910
C          C       0.30870   0.42790   0.51110
C          C       0.32817   0.38563   0.51525
C          C       0.30683   0.36437   0.52205
C          C       0.22420   0.28160   0.55080
C          C       0.20310   0.26050   0.55730
C          C       0.75230   0.42790   0.30870
C          C       0.77095   0.38563   0.32817
C          C       0.80675   0.36437   0.30683
C          C       0.94340   0.28160   0.22420
C          C       0.97910   0.26050   0.20310
C          C       0.51110   0.30870   0.42790
C          C       0.51525   0.32817   0.38563
C          C       0.52205   0.30683   0.36437
C          C       0.55080   0.22420   0.28160
C          C       0.55730   0.20310   0.26050
C          C       0.42790   0.75230   0.51110
C          C       0.38563   0.77095   0.51525
C          C       0.36437   0.80675   0.52205
C          C       0.28160   0.94340   0.55080
C          C       0.26050   0.97910   0.55730
C          C       0.30870   0.51110   0.75230
C          C       0.32817   0.51525   0.77095
C          C       0.30683   0.52205   0.80675
C          C       0.22420   0.55080   0.94340
C          C       0.20310   0.55730   0.97910
C          C       0.75230   0.30870   0.51110
C          C       0.77095   0.32817   0.51525
C          C       0.80675   0.30683   0.52205
C          C       0.94340   0.22420   0.55080
C          C       0.97910   0.20310   0.55730
C          C       0.51110   0.42790   0.75230
C          C       0.51525   0.38563   0.77095
C          C       0.52205   0.36437   0.80675
C          C       0.55080   0.28160   0.94340
C          C       0.55730   0.26050   0.97910
C          C       0.42790   0.51110   0.30870
C          C       0.38563   0.51525   0.32817
C          C       0.36437   0.52205   0.30683
C          C       0.28160   0.55080   0.22420
C          C       0.26050   0.55730   0.20310
C          C       0.30870   0.75230   0.42790
C          C       0.32817   0.77095   0.38563
C          C       0.30683   0.80675   0.36437
C          C       0.22420   0.94340   0.28160
C          C       0.20310   0.97910   0.26050
C          C       0.48890   0.24770   0.57210
C          C       0.48475   0.22905   0.61437
C          C       0.47795   0.19325   0.63563
C          C       0.44920   0.05660   0.71840
C          C       0.44270   0.02090   0.73950
C          C       0.24770   0.48890   0.69130
C          C       0.22905   0.48475   0.67183
C          C       0.19325   0.47795   0.69317
C          C       0.05660   0.44920   0.77580
C          C       0.02090   0.44270   0.79690
C          C       0.69130   0.57210   0.24770
C          C       0.67183   0.61437   0.22905
C          C       0.69317   0.63563   0.19325
C          C       0.77580   0.71840   0.05660
C          C       0.79690   0.73950   0.02090
C          C       0.57210   0.69130   0.48890
C          C       0.61437   0.67183   0.48475
C          C       0.63563   0.69317   0.47795
C          C       0.71840   0.77580   0.44920
C          C       0.73950   0.79690   0.44270
C          C       0.57210   0.24770   0.69130
C          C       0.61437   0.22905   0.67183
C          C       0.63563   0.19325   0.69317
C          C       0.71840   0.05660   0.77580
C          C       0.73950   0.02090   0.79690
C          C       0.69130   0.48890   0.57210
C          C       0.67183   0.48475   0.61437
C          C       0.69317   0.47795   0.63563
C          C       0.77580   0.44920   0.71840
C          C       0.79690   0.44270   0.73950
C          C       0.24770   0.57210   0.48890
C          C       0.22905   0.61437   0.48475
C          C       0.19325   0.63563   0.47795
C          C       0.05660   0.71840   0.44920
C          C       0.02090   0.73950   0.44270
C          C       0.48890   0.69130   0.24770
C          C       0.48475   0.67183   0.22905
C          C       0.47795   0.69317   0.19325
C          C       0.44920   0.77580   0.05660
C          C       0.44270   0.79690   0.02090
C          C       0.69130   0.24770   0.48890
C          C       0.67183   0.22905   0.48475
C          C       0.69317   0.19325   0.47795
C          C       0.77580   0.05660   0.44920
C          C       0.79690   0.02090   0.44270
C          C       0.57210   0.48890   0.24770
C          C       0.61437   0.48475   0.22905
C          C       0.63563   0.47795   0.19325
C          C       0.71840   0.44920   0.05660
C          C       0.73950   0.44270   0.02090
C          C       0.48890   0.57210   0.69130
C          C       0.48475   0.61437   0.67183
C          C       0.47795   0.63563   0.69317
C          C       0.44920   0.71840   0.77580
C          C       0.44270   0.73950   0.79690
C          C       0.24770   0.69130   0.57210
C          C       0.22905   0.67183   0.61437
C          C       0.19325   0.69317   0.63563
C          C       0.05660   0.77580   0.71840
C          C       0.02090   0.79690   0.73950
C          C       0.24620   0.48740   0.63320
C          C       0.17578   0.47402   0.67510
C          C       0.13910   0.46710   0.69690
C          C       0.11090   0.45930   0.71490
C          C       0.07450   0.45250   0.73650
C          C       0.00290   0.43930   0.77890
C          C       0.96610   0.43250   0.80070
C          C       0.93560   0.42680   0.81880
C          C       0.89590   0.42750   0.83830
C          C       0.48740   0.24620   0.63320
C          C       0.47402   0.17578   0.67510
C          C       0.46710   0.13910   0.69690
C          C       0.45930   0.11090   0.71490
C          C       0.45250   0.07450   0.73650
C          C       0.43930   0.00290   0.77890
C          C       0.43250   0.96610   0.80070
C          C       0.42680   0.93560   0.81880
C          C       0.42750   0.89590   0.83830
C          C       0.63320   0.63320   0.24620
C          C       0.67510   0.67510   0.17578
C          C       0.69690   0.69690   0.13910
C          C       0.71490   0.71490   0.11090
C          C       0.73650   0.73650   0.07450
C          C       0.77890   0.77890   0.00290
C          C       0.80070   0.80070   0.96610
C          C       0.81880   0.81880   0.93560
C          C       0.83830   0.83830   0.89590
C          C       0.63320   0.63320   0.48740
C          C       0.67510   0.67510   0.47402
C          C       0.69690   0.69690   0.46710
C          C       0.71490   0.71490   0.45930
C          C       0.73650   0.73650   0.45250
C          C       0.77890   0.77890   0.43930
C          C       0.80070   0.80070   0.43250
C          C       0.81880   0.81880   0.42680
C          C       0.83830   0.83830   0.42750
C          C       0.24620   0.63320   0.63320
C          C       0.17578   0.67510   0.67510
C          C       0.13910   0.69690   0.69690
C          C       0.11090   0.71490   0.71490
C          C       0.07450   0.73650   0.73650
C          C       0.00290   0.77890   0.77890
C          C       0.96610   0.80070   0.80070
C          C       0.93560   0.81880   0.81880
C          C       0.89590   0.83830   0.83830
C          C       0.48740   0.63320   0.63320
C          C       0.47402   0.67510   0.67510
C          C       0.46710   0.69690   0.69690
C          C       0.45930   0.71490   0.71490
C          C       0.45250   0.73650   0.73650
C          C       0.43930   0.77890   0.77890
C          C       0.43250   0.80070   0.80070
C          C       0.42680   0.81880   0.81880
C          C       0.42750   0.83830   0.83830
C          C       0.63320   0.24620   0.48740
C          C       0.67510   0.17578   0.47402
C          C       0.69690   0.13910   0.46710
C          C       0.71490   0.11090   0.45930
C          C       0.73650   0.07450   0.45250
C          C       0.77890   0.00290   0.43930
C          C       0.80070   0.96610   0.43250
C          C       0.81880   0.93560   0.42680
C          C       0.83830   0.89590   0.42750
C          C       0.63320   0.48740   0.24620
C          C       0.67510   0.47402   0.17578
C          C       0.69690   0.46710   0.13910
C          C       0.71490   0.45930   0.11090
C          C       0.73650   0.45250   0.07450
C          C       0.77890   0.43930   0.00290
C          C       0.80070   0.43250   0.96610
C          C       0.81880   0.42680   0.93560
C          C       0.83830   0.42750   0.89590
C          C       0.24620   0.63320   0.48740
C          C       0.17578   0.67510   0.47402
C          C       0.13910   0.69690   0.46710
C          C       0.11090   0.71490   0.45930
C          C       0.07450   0.73650   0.45250
C          C       0.00290   0.77890   0.43930
C          C       0.96610   0.80070   0.43250
C          C       0.93560   0.81880   0.42680
C          C       0.89590   0.83830   0.42750
C          C       0.48740   0.63320   0.24620
C          C       0.47402   0.67510   0.17578
C          C       0.46710   0.69690   0.13910
C          C       0.45930   0.71490   0.11090
C          C       0.45250   0.73650   0.07450
C          C       0.43930   0.77890   0.00290
C          C       0.43250   0.80070   0.96610
C          C       0.42680   0.81880   0.93560
C          C       0.42750   0.83830   0.89590
C          C       0.63320   0.48740   0.63320
C          C       0.67510   0.47402   0.67510
C          C       0.69690   0.46710   0.69690
C          C       0.71490   0.45930   0.71490
C          C       0.73650   0.45250   0.73650
C          C       0.77890   0.43930   0.77890
C          C       0.80070   0.43250   0.80070
C          C       0.81880   0.42680   0.81880
C          C       0.83830   0.42750   0.83830
C          C       0.63320   0.24620   0.63320
C          C       0.67510   0.17578   0.67510
C          C       0.69690   0.13910   0.69690
C          C       0.71490   0.11090   0.71490
C          C       0.73650   0.07450   0.73650
C          C       0.77890   0.00290   0.77890
C          C       0.80070   0.96610   0.80070
C          C       0.81880   0.93560   0.81880
C          C       0.83830   0.89590   0.83830
C          C       0.51260   0.75380   0.36680
C          C       0.52598   0.82422   0.32490
C          C       0.53290   0.86090   0.30310
C          C       0.54070   0.88910   0.28510
C          C       0.54750   0.92550   0.26350
C          C       0.56070   0.99710   0.22110
C          C       0.56750   0.03390   0.19930
C          C       0.57320   0.06440   0.18120
C          C       0.57250   0.10410   0.16170
C          C       0.75380   0.51260   0.36680
C          C       0.82422   0.52598   0.32490
C          C       0.86090   0.53290   0.30310
C          C       0.88910   0.54070   0.28510
C          C       0.92550   0.54750   0.26350
C          C       0.99710   0.56070   0.22110
C          C       0.03390   0.56750   0.19930
C          C       0.06440   0.57320   0.18120
C          C       0.10410   0.57250   0.16170
C          C       0.36680   0.36680   0.75380
C          C       0.32490   0.32490   0.82422
C          C       0.30310   0.30310   0.86090
C          C       0.28510   0.28510   0.88910
C          C       0.26350   0.26350   0.92550
C          C       0.22110   0.22110   0.99710
C          C       0.19930   0.19930   0.03390
C          C       0.18120   0.18120   0.06440
C          C       0.16170   0.16170   0.10410
C          C       0.36680   0.36680   0.51260
C          C       0.32490   0.32490   0.52598
C          C       0.30310   0.30310   0.53290
C          C       0.28510   0.28510   0.54070
C          C       0.26350   0.26350   0.54750
C          C       0.22110   0.22110   0.56070
C          C       0.19930   0.19930   0.56750
C          C       0.18120   0.18120   0.57320
C          C       0.16170   0.16170   0.57250
C          C       0.36680   0.75380   0.36680
C          C       0.32490   0.82422   0.32490
C          C       0.30310   0.86090   0.30310
C          C       0.28510   0.88910   0.28510
C          C       0.26350   0.92550   0.26350
C          C       0.22110   0.99710   0.22110
C          C       0.19930   0.03390   0.19930
C          C       0.18120   0.06440   0.18120
C          C       0.16170   0.10410   0.16170
C          C       0.36680   0.51260   0.36680
C          C       0.32490   0.52598   0.32490
C          C       0.30310   0.53290   0.30310
C          C       0.28510   0.54070   0.28510
C          C       0.26350   0.54750   0.26350
C          C       0.22110   0.56070   0.22110
C          C       0.19930   0.56750   0.19930
C          C       0.18120   0.57320   0.18120
C          C       0.16170   0.57250   0.16170
C          C       0.75380   0.36680   0.51260
C          C       0.82422   0.32490   0.52598
C          C       0.86090   0.30310   0.53290
C          C       0.88910   0.28510   0.54070
C          C       0.92550   0.26350   0.54750
C          C       0.99710   0.22110   0.56070
C          C       0.03390   0.19930   0.56750
C          C       0.06440   0.18120   0.57320
C          C       0.10410   0.16170   0.57250
C          C       0.51260   0.36680   0.75380
C          C       0.52598   0.32490   0.82422
C          C       0.53290   0.30310   0.86090
C          C       0.54070   0.28510   0.88910
C          C       0.54750   0.26350   0.92550
C          C       0.56070   0.22110   0.99710
C          C       0.56750   0.19930   0.03390
C          C       0.57320   0.18120   0.06440
C          C       0.57250   0.16170   0.10410
C          C       0.36680   0.75380   0.51260
C          C       0.32490   0.82422   0.52598
C          C       0.30310   0.86090   0.53290
C          C       0.28510   0.88910   0.54070
C          C       0.26350   0.92550   0.54750
C          C       0.22110   0.99710   0.56070
C          C       0.19930   0.03390   0.56750
C          C       0.18120   0.06440   0.57320
C          C       0.16170   0.10410   0.57250
C          C       0.36680   0.51260   0.75380
C          C       0.32490   0.52598   0.82422
C          C       0.30310   0.53290   0.86090
C          C       0.28510   0.54070   0.88910
C          C       0.26350   0.54750   0.92550
C          C       0.22110   0.56070   0.99710
C          C       0.19930   0.56750   0.03390
C          C       0.18120   0.57320   0.06440
C          C       0.16170   0.57250   0.10410
C          C       0.51260   0.36680   0.36680
C          C       0.52598   0.32490   0.32490
C          C       0.53290   0.30310   0.30310
C          C       0.54070   0.28510   0.28510
C          C       0.54750   0.26350   0.26350
C          C       0.56070   0.22110   0.22110
C          C       0.56750   0.19930   0.19930
C          C       0.57320   0.18120   0.18120
C          C       0.57250   0.16170   0.16170
C          C       0.75380   0.36680   0.36680
C          C       0.82422   0.32490   0.32490
C          C       0.86090   0.30310   0.30310
C          C       0.88910   0.28510   0.28510
C          C       0.92550   0.26350   0.26350
C          C       0.99710   0.22110   0.22110
C          C       0.03390   0.19930   0.19930
C          C       0.06440   0.18120   0.18120
C          C       0.10410   0.16170   0.16170
C          C       0.87770   0.42450   0.87770
C          C       0.42450   0.87770   0.82010
C          C       0.87770   0.82010   0.87770
C          C       0.82010   0.87770   0.42450
C          C       0.87770   0.87770   0.82010
C          C       0.42450   0.82010   0.87770
C          C       0.87770   0.87770   0.42450
C          C       0.82010   0.42450   0.87770
C          C       0.87770   0.82010   0.42450
C          C       0.42450   0.87770   0.87770
C          C       0.87770   0.42450   0.82010
C          C       0.82010   0.87770   0.87770
C          C       0.57550   0.12230   0.12230
C          C       0.12230   0.57550   0.17990
C          C       0.17990   0.12230   0.12230
C          C       0.12230   0.17990   0.57550
C          C       0.12230   0.12230   0.17990
C          C       0.17990   0.57550   0.12230
C          C       0.12230   0.12230   0.57550
C          C       0.57550   0.17990   0.12230
C          C       0.17990   0.12230   0.57550
C          C       0.12230   0.57550   0.12230
C          C       0.57550   0.12230   0.17990
C          C       0.12230   0.17990   0.12230
O          O       0.28113   0.49107   0.55533
O          O       0.22820   0.49000   0.55580
O          O       0.49107   0.28113   0.67247
O          O       0.49000   0.22820   0.72600
O          O       0.55533   0.67247   0.28113
O          O       0.55580   0.72600   0.22820
O          O       0.67247   0.55533   0.49107
O          O       0.72600   0.55580   0.49000
O          O       0.28113   0.55533   0.67247
O          O       0.22820   0.55580   0.72600
O          O       0.49107   0.67247   0.55533
O          O       0.49000   0.72600   0.55580
O          O       0.55533   0.28113   0.49107
O          O       0.55580   0.22820   0.49000
O          O       0.67247   0.49107   0.28113
O          O       0.72600   0.49000   0.22820
O          O       0.28113   0.67247   0.49107
O          O       0.22820   0.72600   0.49000
O          O       0.49107   0.55533   0.28113
O          O       0.49000   0.55580   0.22820
O          O       0.55533   0.49107   0.67247
O          O       0.55580   0.49000   0.72600
O          O       0.67247   0.28113   0.55533
O          O       0.72600   0.22820   0.55580
O          O       0.50893   0.71887   0.44467
O          O       0.51000   0.77180   0.44420
O          O       0.71887   0.50893   0.32753
O          O       0.77180   0.51000   0.27400
O          O       0.32753   0.44467   0.71887
O          O       0.27400   0.44420   0.77180
O          O       0.44467   0.32753   0.50893
O          O       0.44420   0.27400   0.51000
O          O       0.44467   0.71887   0.32753
O          O       0.44420   0.77180   0.27400
O          O       0.32753   0.50893   0.44467
O          O       0.27400   0.51000   0.44420
O          O       0.71887   0.44467   0.50893
O          O       0.77180   0.44420   0.51000
O          O       0.50893   0.32753   0.71887
O          O       0.51000   0.27400   0.77180
O          O       0.32753   0.71887   0.50893
O          O       0.27400   0.77180   0.51000
O          O       0.44467   0.50893   0.71887
O          O       0.44420   0.51000   0.77180
O          O       0.50893   0.44467   0.32753
O          O       0.51000   0.44420   0.27400
O          O       0.71887   0.32753   0.44467
O          O       0.77180   0.27400   0.44420
O          O       0.71887   0.50893   0.44467
O          O       0.77180   0.51000   0.44420
O          O       0.50893   0.71887   0.32753
O          O       0.51000   0.77180   0.27400
O          O       0.44467   0.32753   0.71887
O          O       0.44420   0.27400   0.77180
O          O       0.32753   0.44467   0.50893
O          O       0.27400   0.44420   0.51000
O          O       0.71887   0.44467   0.32753
O          O       0.77180   0.44420   0.27400
O          O       0.50893   0.32753   0.44467
O          O       0.51000   0.27400   0.44420
O          O       0.44467   0.71887   0.50893
O          O       0.44420   0.77180   0.51000
O          O       0.32753   0.50893   0.71887
O          O       0.27400   0.51000   0.77180
O          O       0.71887   0.32753   0.50893
O          O       0.77180   0.27400   0.51000
O          O       0.50893   0.44467   0.71887
O          O       0.51000   0.44420   0.77180
O          O       0.44467   0.50893   0.32753
O          O       0.44420   0.51000   0.27400
O          O       0.32753   0.71887   0.44467
O          O       0.27400   0.77180   0.44420
O          O       0.49107   0.28113   0.55533
O          O       0.49000   0.22820   0.55580
O          O       0.28113   0.49107   0.67247
O          O       0.22820   0.49000   0.72600
O          O       0.67247   0.55533   0.28113
O          O       0.72600   0.55580   0.22820
O          O       0.55533   0.67247   0.49107
O          O       0.55580   0.72600   0.49000
O          O       0.55533   0.28113   0.67247
O          O       0.55580   0.22820   0.72600
O          O       0.67247   0.49107   0.55533
O          O       0.72600   0.49000   0.55580
O          O       0.28113   0.55533   0.49107
O          O       0.22820   0.55580   0.49000
O          O       0.49107   0.67247   0.28113
O          O       0.49000   0.72600   0.22820
O          O       0.67247   0.28113   0.49107
O          O       0.72600   0.22820   0.49000
O          O       0.55533   0.49107   0.28113
O          O       0.55580   0.49000   0.22820
O          O       0.49107   0.55533   0.67247
O          O       0.49000   0.55580   0.72600
O          O       0.28113   0.67247   0.55533
O          O       0.22820   0.72600   0.55580
