data_crystal

_cell_length_a    41.52620
_cell_length_b    41.52620
_cell_length_c    17.49160
_cell_angle_alpha 90.00000
_cell_angle_beta  90.00000
_cell_angle_gamma 120.00000

_space_group_name_Hall 'P 1'
_space_group_name_H-M_alt 'P 1'

loop_
_symmetry_equiv_pos_as_xyz
 'x,y,z'

loop_
_atom_site_label
_atom_site_type_symbol
_atom_site_fract_x
_atom_site_fract_y
_atom_site_fract_z
Zn         Zn      0.40926   0.47975   0.75206
Zn         Zn      0.59274   0.52227   0.25160
Zn         Zn      0.52164   0.93018   0.74890
Zn         Zn      0.47826   0.06955   0.25117
Zn         Zn      0.06948   0.59134   0.75066
Zn         Zn      0.93100   0.40900   0.25100
Zn         Zn      0.37187   0.40219   0.66001
Zn         Zn      0.63430   0.60160   0.34343
Zn         Zn      0.59801   0.96983   0.65985
Zn         Zn      0.40230   0.03017   0.34049
Zn         Zn      0.03045   0.62814   0.65972
Zn         Zn      0.97061   0.37224   0.34005
Zn         Zn      0.62967   0.59768   0.16003
Zn         Zn      0.37247   0.40319   0.84007
Zn         Zn      0.40217   0.03033   0.15991
Zn         Zn      0.59804   0.96976   0.84016
Zn         Zn      0.97092   0.37240   0.15954
Zn         Zn      0.03001   0.62801   0.84008
Zn         Zn      0.32219   0.42738   0.75156
Zn         Zn      0.67975   0.57290   0.24688
Zn         Zn      0.57334   0.89491   0.75162
Zn         Zn      0.42676   0.10510   0.25164
Zn         Zn      0.10503   0.67856   0.74825
Zn         Zn      0.89647   0.32217   0.24917
O          O       0.36948   0.42857   0.74991
O          O       0.63325   0.57313   0.25130
O          O       0.57275   0.94110   0.75006
O          O       0.42726   0.05893   0.25027
O          O       0.05897   0.63176   0.74994
O          O       0.94244   0.36934   0.24995
O          O       0.44087   0.48930   0.66217
O          O       0.55734   0.51244   0.33500
O          O       0.51064   0.95157   0.66164
O          O       0.48945   0.04843   0.33849
O          O       0.04727   0.55901   0.66295
O          O       0.95318   0.44095   0.33853
O          O       0.56075   0.51055   0.16197
O          O       0.44098   0.48973   0.84099
O          O       0.48925   0.04842   0.16223
O          O       0.51074   0.95153   0.83770
O          O       0.95307   0.44089   0.16251
O          O       0.04693   0.55908   0.83780
O          O       0.29377   0.40627   0.65855
O          O       0.71010   0.59034   0.33737
O          O       0.59391   0.88748   0.65770
O          O       0.40631   0.11278   0.34521
O          O       0.11281   0.70646   0.65493
O          O       0.88919   0.29373   0.34203
O          O       0.70820   0.59368   0.15327
O          O       0.29385   0.40645   0.84461
O          O       0.40617   0.11254   0.15828
O          O       0.59364   0.88722   0.84459
O          O       0.88910   0.29357   0.15704
O          O       0.11100   0.70644   0.84167
O          O       0.33000   0.38906   0.59247
O          O       0.68502   0.62365   0.38364
O          O       0.61104   0.94083   0.59203
O          O       0.38887   0.05890   0.40844
O          O       0.05900   0.67007   0.59164
O          O       0.94248   0.32993   0.40757
O          O       0.67159   0.61100   0.09136
O          O       0.33018   0.38902   0.90794
O          O       0.38896   0.05908   0.09245
O          O       0.61111   0.94113   0.90827
O          O       0.94263   0.32997   0.09189
O          O       0.05763   0.67022   0.90783
O          O       0.37168   0.35656   0.68308
O          O       0.63551   0.64603   0.30402
O          O       0.64353   0.01519   0.68646
O          O       0.35750   0.98427   0.31669
O          O       0.98548   0.62844   0.68332
O          O       0.01550   0.37160   0.31338
O          O       0.63008   0.64399   0.17483
O          O       0.37160   0.35755   0.81308
O          O       0.35767   0.98450   0.18664
O          O       0.64378   0.01535   0.81663
O          O       0.01581   0.37159   0.18333
O          O       0.98432   0.62675   0.81328
O          O       0.41657   0.43395   0.59993
O          O       0.59374   0.56227   0.40852
O          O       0.56625   0.98264   0.60052
O          O       0.43395   0.01739   0.39984
O          O       0.01730   0.58374   0.59996
O          O       0.98424   0.41668   0.39974
O          O       0.58507   0.56585   0.10034
O          O       0.41671   0.43394   0.90014
O          O       0.43392   0.01751   0.10066
O          O       0.56610   0.98251   0.89916
O          O       0.98427   0.41678   0.10009
O          O       0.01580   0.58334   0.89983
O          O       0.32994   0.47753   0.74985
O          O       0.67166   0.52254   0.24514
O          O       0.52279   0.85253   0.75026
O          O       0.47717   0.14743   0.24995
O          O       0.14729   0.67037   0.75050
O          O       0.85407   0.32989   0.24987
O          O       0.39245   0.51548   0.75050
O          O       0.60907   0.48595   0.25091
O          O       0.48563   0.87789   0.74920
O          O       0.51413   0.12183   0.25026
O          O       0.12180   0.60773   0.74994
O          O       0.87857   0.39240   0.25024
C          C       0.44033   0.46802   0.60924
C          C       0.56378   0.53262   0.39431
C          C       0.53216   0.97259   0.60926
C          C       0.46803   0.02745   0.39104
C          C       0.02699   0.55956   0.60962
C          C       0.97404   0.44058   0.39095
C          C       0.56100   0.53182   0.10963
C          C       0.44079   0.46809   0.89241
C          C       0.46796   0.02754   0.10966
C          C       0.53206   0.97243   0.89020
C          C       0.97390   0.44057   0.10945
C          C       0.02604   0.55945   0.89074
C          C       0.47129   0.48500   0.55242
C          C       0.53270   0.51916   0.45223
C          C       0.51568   0.98678   0.55277
C          C       0.48458   0.01334   0.44752
C          C       0.01330   0.52884   0.55307
C          C       0.98780   0.47127   0.44753
C          C       0.52996   0.51523   0.05344
C          C       0.47170   0.48438   0.94863
C          C       0.48451   0.01335   0.05289
C          C       0.51550   0.98661   0.94702
C          C       0.98740   0.47122   0.05281
C          C       0.01242   0.52877   0.94727
C          C       0.47333   0.46553   0.48938
C          C       0.53045   0.53921   0.51590
C          C       0.53729   0.00990   0.49312
C          C       0.46297   0.99024   0.50719
C          C       0.99088   0.52748   0.49260
C          C       0.01024   0.47265   0.50798
C          C       0.52822   0.53695   0.99459
C          C       0.47346   0.46264   0.00745
C          C       0.46288   0.99026   0.99338
C          C       0.53712   0.00969   0.00654
C          C       0.01000   0.47287   0.99180
C          C       0.98981   0.52712   0.00827
C          C       0.49941   0.52142   0.56368
C          C       0.50348   0.48284   0.44025
C          C       0.47845   0.97703   0.55954
C          C       0.52181   0.02311   0.44076
C          C       0.02293   0.50135   0.56063
C          C       0.97814   0.49875   0.44002
C          C       0.50240   0.47797   0.05949
C          C       0.49930   0.52164   0.94257
C          C       0.52167   0.02301   0.05930
C          C       0.47833   0.97693   0.94063
C          C       0.97736   0.49845   0.06081
C          C       0.02246   0.50154   0.93927
C          C       0.30290   0.39493   0.59889
C          C       0.70683   0.61063   0.38806
C          C       0.60529   0.90786   0.59815
C          C       0.39486   0.09193   0.40403
C          C       0.09199   0.69711   0.59622
C          C       0.90945   0.30288   0.40157
C          C       0.69859   0.60500   0.09480
C          C       0.30317   0.39501   0.90339
C          C       0.39484   0.09208   0.09881
C          C       0.60511   0.90809   0.90350
C          C       0.90962   0.30292   0.09740
C          C       0.09067   0.69728   0.90149
C          C       0.28009   0.38835   0.52958
C          C       0.72964   0.61829   0.45790
C          C       0.61211   0.89157   0.52858
C          C       0.38833   0.10797   0.47426
C          C       0.10804   0.71970   0.52633
C          C       0.89292   0.28017   0.47125
C          C       0.72055   0.61147   0.02344
C          C       0.28069   0.38854   0.97356
C          C       0.38823   0.10839   0.02956
C          C       0.61165   0.89211   0.97324
C          C       0.89321   0.28037   0.02754
C          C       0.10722   0.72008   0.97101
C          C       0.25443   0.40055   0.52639
C          C       0.74775   0.59823   0.47076
C          C       0.60032   0.85374   0.52504
C          C       0.40041   0.14584   0.47806
C          C       0.14590   0.74545   0.52244
C          C       0.85500   0.25461   0.47485
C          C       0.74613   0.59926   0.01723
C          C       0.25501   0.40069   0.97780
C          C       0.40053   0.14631   0.02619
C          C       0.59971   0.85428   0.97662
C          C       0.85533   0.25463   0.02464
C          C       0.14515   0.74568   0.97373
C          C       0.23516   0.39677   0.45939
C          C       0.76508   0.60125   0.54005
C          C       0.60437   0.83821   0.45785
C          C       0.39652   0.16132   0.54539
C          C       0.16138   0.76472   0.45519
C          C       0.83921   0.23549   0.54217
C          C       0.76484   0.60328   0.94883
C          C       0.23591   0.39699   0.04544
C          C       0.39665   0.16189   0.95933
C          C       0.60367   0.83886   0.04357
C          C       0.83954   0.23551   0.95742
C          C       0.16105   0.76498   0.04074
C          C       0.24051   0.38018   0.39431
C          C       0.76466   0.62423   0.59841
C          C       0.62081   0.86004   0.39272
C          C       0.37993   0.13937   0.61028
C          C       0.13943   0.75928   0.39059
C          C       0.86089   0.24087   0.60723
C          C       0.75929   0.62030   0.88507
C          C       0.24145   0.38050   0.10998
C          C       0.37983   0.13998   0.89456
C          C       0.62019   0.86083   0.10843
C          C       0.86117   0.24103   0.89170
C          C       0.13947   0.75975   0.10638
C          C       0.26543   0.36692   0.39918
C          C       0.74788   0.64547   0.58379
C          C       0.63375   0.89821   0.39802
C          C       0.36696   0.10121   0.60497
C          C       0.10127   0.73419   0.39606
C          C       0.89911   0.26573   0.60199
C          C       0.73406   0.63309   0.89262
C          C       0.26654   0.36746   0.10425
C          C       0.36647   0.10174   0.89964
C          C       0.63298   0.89895   0.10355
C          C       0.89936   0.26612   0.89615
C          C       0.10123   0.73487   0.10205
C          C       0.28527   0.37128   0.46547
C          C       0.73079   0.64274   0.51422
C          C       0.62914   0.91372   0.46449
C          C       0.37142   0.08572   0.53827
C          C       0.08579   0.71433   0.46265
C          C       0.91489   0.28543   0.53539
C          C       0.71470   0.62844   0.96037
C          C       0.28623   0.37175   0.03728
C          C       0.37094   0.08618   0.96574
C          C       0.62846   0.91438   0.03725
C          C       0.91515   0.28583   0.96270
C          C       0.08534   0.71497   0.03576
C          C       0.22156   0.37761   0.32178
C          C       0.78141   0.62548   0.67320
C          C       0.62349   0.84365   0.31970
C          C       0.37712   0.15597   0.68278
C          C       0.15602   0.77852   0.31815
C          C       0.84419   0.22185   0.67989
C          C       0.77900   0.62391   0.81239
C          C       0.22216   0.37771   0.18255
C          C       0.37718   0.15645   0.82212
C          C       0.62324   0.84428   0.18035
C          C       0.84438   0.22192   0.81927
C          C       0.15626   0.77881   0.17884
C          C       0.23921   0.37957   0.25229
C          C       0.76329   0.62402   0.74180
C          C       0.62134   0.85932   0.25067
C          C       0.37899   0.14076   0.75255
C          C       0.14063   0.76140   0.24840
C          C       0.85975   0.23918   0.74945
C          C       0.18653   0.37432   0.32048
C          C       0.81549   0.62680   0.67588
C          C       0.62705   0.81203   0.31722
C          C       0.37380   0.18771   0.68363
C          C       0.18790   0.81347   0.31734
C          C       0.81228   0.18689   0.68123
C          C       0.81360   0.62613   0.81278
C          C       0.18710   0.37427   0.18331
C          C       0.37404   0.18831   0.82087
C          C       0.62697   0.81278   0.17999
C          C       0.81252   0.18692   0.81846
C          C       0.18829   0.81369   0.18012
C          C       0.16880   0.37298   0.25166
C          C       0.83236   0.62731   0.74523
C          C       0.62853   0.79579   0.24777
C          C       0.37267   0.20477   0.75208
C          C       0.20496   0.83150   0.24892
C          C       0.79558   0.16893   0.75000
C          C       0.13239   0.37100   0.25079
C          C       0.86838   0.62852   0.74658
C          C       0.63110   0.76161   0.24567
C          C       0.37081   0.23933   0.75143
C          C       0.23971   0.86775   0.24963
C          C       0.76101   0.13250   0.75032
C          C       0.11511   0.37059   0.18171
C          C       0.88486   0.62733   0.81558
C          C       0.63158   0.74478   0.17610
C          C       0.37010   0.25698   0.81959
C          C       0.25724   0.88600   0.18143
C          C       0.74351   0.11490   0.81907
C          C       0.88720   0.63020   0.67845
C          C       0.11414   0.37052   0.31894
C          C       0.37074   0.25650   0.68244
C          C       0.63221   0.74403   0.31315
C          C       0.74372   0.11447   0.68192
C          C       0.25715   0.88491   0.31858
C          C       0.08180   0.37038   0.18055
C          C       0.91810   0.62737   0.81657
C          C       0.63243   0.71196   0.17393
C          C       0.37000   0.29019   0.81899
C          C       0.29058   0.91916   0.18192
C          C       0.71041   0.08150   0.81961
C          C       0.92033   0.63009   0.67895
C          C       0.08082   0.37032   0.31824
C          C       0.37058   0.28965   0.68137
C          C       0.63330   0.71134   0.31135
C          C       0.71058   0.08109   0.68199
C          C       0.29044   0.91811   0.31955
C          C       0.06439   0.37050   0.24895
C          C       0.93608   0.62851   0.74811
C          C       0.63313   0.69468   0.24173
C          C       0.37049   0.30709   0.74975
C          C       0.30770   0.93553   0.25108
C          C       0.69339   0.06427   0.75095
C          C       0.37126   0.34301   0.74865
C          C       0.63297   0.65900   0.24000
C          C       0.65758   0.02895   0.75135
C          C       0.34359   0.97072   0.25158
C          C       0.97123   0.62789   0.74838
C          C       0.02927   0.37123   0.24839
C          C       0.35919   0.50915   0.74993
C          C       0.64202   0.49139   0.24810
C          C       0.49143   0.85060   0.74885
C          C       0.50849   0.14920   0.24988
C          C       0.14910   0.64083   0.75169
C          C       0.85163   0.35909   0.25017
C          C       0.35410   0.54185   0.74942
C          C       0.64655   0.45832   0.24832
C          C       0.45848   0.81292   0.74676
C          C       0.54150   0.18678   0.24939
C          C       0.18673   0.64560   0.75511
C          C       0.81382   0.35392   0.25047
C          C       0.68177   0.46273   0.23800
C          C       0.46257   0.78204   0.75845
C          C       0.53722   0.21777   0.24226
C          C       0.21720   0.68060   0.76952
C          C       0.78305   0.31852   0.24223
C          C       0.31909   0.53737   0.73625
C          C       0.68662   0.43223   0.23782
C          C       0.43190   0.74674   0.75812
C          C       0.56789   0.25304   0.24173
C          C       0.25255   0.68548   0.77227
C          C       0.74766   0.31360   0.24193
C          C       0.31420   0.56787   0.73533
C          C       0.34374   0.60368   0.74985
C          C       0.65675   0.39627   0.24947
C          C       0.39623   0.74084   0.74404
C          C       0.60391   0.25886   0.24943
C          C       0.25893   0.65593   0.75849
C          C       0.74150   0.34357   0.25121
C          C       0.37865   0.60763   0.76392
C          C       0.62159   0.39240   0.26044
C          C       0.60763   0.22734   0.25687
C          C       0.39272   0.77215   0.73098
C          C       0.77279   0.37890   0.26012
C          C       0.22797   0.62095   0.74404
C          C       0.38397   0.57736   0.76258
C          C       0.61641   0.42276   0.25914
C          C       0.57708   0.19190   0.25632
C          C       0.42318   0.80765   0.73332
C          C       0.80833   0.38414   0.25909
C          C       0.19240   0.61566   0.74338
C          C       0.33821   0.63597   0.75036
C          C       0.66225   0.36389   0.25001
C          C       0.36377   0.70303   0.74560
C          C       0.63644   0.29669   0.24984
C          C       0.29681   0.66155   0.75644
C          C       0.70363   0.33811   0.25114
C          C       0.30280   0.63142   0.75869
C          C       0.69779   0.36835   0.25109
C          C       0.36822   0.67193   0.74250
C          C       0.63205   0.32781   0.24916
C          C       0.32775   0.69714   0.75116
C          C       0.67251   0.30254   0.25083
H          H       0.45139   0.43711   0.47968
H          H       0.56617   0.01715   0.48890
H          H       0.43409   0.98298   0.51140
H          H       0.98380   0.54921   0.48805
H          H       0.01734   0.45093   0.51252
H          H       0.54988   0.56586   0.99080
H          H       0.45182   0.43372   0.01135
H          H       0.43405   0.98315   0.98972
H          H       0.56595   0.01679   0.01020
H          H       0.01745   0.45140   0.98672
H          H       0.98237   0.54860   0.01337
H          H       0.49663   0.53586   0.61305
H          H       0.50558   0.46831   0.39035
H          H       0.46217   0.95904   0.60640
H          H       0.53809   0.04109   0.39390
H          H       0.04039   0.50310   0.60827
H          H       0.96064   0.49699   0.39247
H          H       0.50420   0.46151   0.10560
H          H       0.49751   0.53812   0.89647
H          H       0.53787   0.04099   0.10613
H          H       0.46214   0.95894   0.89381
H          H       0.95975   0.49653   0.10875
H          H       0.04007   0.50346   0.89135
H          H       0.25068   0.41383   0.57664
H          H       0.74689   0.57946   0.42635
H          H       0.58711   0.83670   0.57518
H          H       0.41367   0.16288   0.42796
H          H       0.16291   0.74926   0.57235
H          H       0.83814   0.25082   0.42467
H          H       0.75037   0.58588   0.06636
H          H       0.25113   0.41387   0.92789
H          H       0.41400   0.16333   0.07616
H          H       0.58656   0.83723   0.92652
H          H       0.83851   0.25070   0.07535
H          H       0.16191   0.74936   0.92305
H          H       0.21651   0.40789   0.45646
H          H       0.77792   0.58450   0.55072
H          H       0.59358   0.80845   0.45492
H          H       0.40753   0.19109   0.54869
H          H       0.19115   0.78344   0.45169
H          H       0.80940   0.21693   0.54529
H          H       0.78344   0.59214   0.94397
H          H       0.21721   0.40805   0.04925
H          H       0.40788   0.19171   0.95629
H          H       0.59281   0.80910   0.04663
H          H       0.80975   0.21679   0.95492
H          H       0.19087   0.78356   0.04314
H          H       0.26905   0.35285   0.35016
H          H       0.74845   0.66435   0.62766
H          H       0.64777   0.91591   0.34913
H          H       0.35301   0.08351   0.65391
H          H       0.08359   0.73044   0.34735
H          H       0.91663   0.26943   0.65096
H          H       0.72993   0.64724   0.84474
H          H       0.27038   0.35360   0.15301
H          H       0.35222   0.08406   0.85092
H          H       0.64687   0.91667   0.15246
H          H       0.91686   0.26998   0.84662
H          H       0.08379   0.73129   0.15150
H          H       0.30508   0.36161   0.46883
H          H       0.71752   0.65897   0.50312
H          H       0.63858   0.94319   0.46797
H          H       0.36192   0.05625   0.53451
H          H       0.05633   0.69439   0.46661
H          H       0.94441   0.30520   0.53180
H          H       0.69481   0.63797   0.96587
H          H       0.30615   0.36224   0.03301
H          H       0.36119   0.05666   0.96917
H          H       0.63786   0.94383   0.03376
H          H       0.94463   0.30575   0.96571
H          H       0.05582   0.69518   0.03289
H          H       0.26734   0.38434   0.25252
H          H       0.73584   0.62105   0.73970
H          H       0.61640   0.88259   0.25178
H          H       0.38366   0.11731   0.75274
H          H       0.11707   0.73333   0.24820
H          H       0.88328   0.26726   0.74926
H          H       0.17290   0.37245   0.37486
H          H       0.82898   0.62789   0.62175
H          H       0.62904   0.80023   0.37115
H          H       0.37181   0.19899   0.62905
H          H       0.19929   0.82680   0.37194
H          H       0.80061   0.17348   0.62684
H          H       0.82612   0.62727   0.86783
H          H       0.17390   0.37230   0.12869
H          H       0.37237   0.20013   0.87529
H          H       0.62900   0.80166   0.12497
H          H       0.80108   0.17348   0.87302
H          H       0.20011   0.82712   0.12574
H          H       0.12793   0.37070   0.12732
H          H       0.87148   0.62616   0.86990
H          H       0.63100   0.75729   0.12206
H          H       0.36982   0.24477   0.87460
H          H       0.24482   0.87409   0.12649
H          H       0.75574   0.12753   0.87368
H          H       0.87582   0.63154   0.62355
H          H       0.12618   0.37057   0.37395
H          H       0.37107   0.24397   0.62801
H          H       0.63201   0.75579   0.36865
H          H       0.75616   0.12671   0.62707
H          H       0.24473   0.87208   0.37303
H          H       0.06883   0.37033   0.12670
H          H       0.93057   0.62634   0.87030
H          H       0.63242   0.69911   0.11962
H          H       0.36972   0.30368   0.87220
H          H       0.30398   0.93288   0.12870
H          H       0.69709   0.06829   0.87327
H          H       0.93454   0.63116   0.62583
H          H       0.06706   0.37022   0.37135
H          H       0.37075   0.30271   0.62750
H          H       0.63384   0.69799   0.36438
H          H       0.69739   0.06757   0.62858
H          H       0.30371   0.93098   0.37335
H          H       0.70510   0.49055   0.22975
H          H       0.49015   0.78640   0.76882
H          H       0.50941   0.21356   0.23690
H          H       0.21251   0.70374   0.77881
H          H       0.78751   0.29509   0.23559
H          H       0.29602   0.50961   0.72597
H          H       0.71428   0.43662   0.22785
H          H       0.43574   0.72334   0.77036
H          H       0.56348   0.27645   0.23493
H          H       0.27560   0.71285   0.78553
H          H       0.72443   0.28575   0.23378
H          H       0.28697   0.56385   0.72224
H          H       0.40197   0.63483   0.77730
H          H       0.59769   0.36519   0.27087
H          H       0.63488   0.23033   0.26364
H          H       0.36572   0.76883   0.71842
H          H       0.76954   0.40297   0.26841
H          H       0.23176   0.59748   0.73164
H          H       0.41114   0.58057   0.77267
H          H       0.58902   0.41945   0.26711
H          H       0.58028   0.16766   0.26175
H          H       0.42018   0.83181   0.72422
H          H       0.83236   0.41166   0.26545
H          H       0.16857   0.58844   0.73243
H          H       0.27943   0.60380   0.76833
H          H       0.72157   0.39618   0.25195
H          H       0.39564   0.67574   0.73254
H          H       0.32371   0.72094   0.75136
H          H       0.67647   0.27872   0.25143
H          H       0.60433   0.32393   0.24767
H          H       0.55139   0.56655   0.52499
