data_crystal
 
_cell_length_a    34.57260
_cell_length_b    34.57260
_cell_length_c    34.57260
_cell_angle_alpha 60.00000
_cell_angle_beta  60.00000
_cell_angle_gamma 60.00000
 
_symmetry_space_group_name_Hall 'P 1'
_symmetry_space_group_name_H-M  'P 1'
_symmetry_int_tables_number      1
 
loop_
_symmetry_equiv_pos_as_xyz
 'x,y,z' 
 
loop_
_atom_site_label
_atom_site_type_symbol
_atom_site_fract_x
_atom_site_fract_y
_atom_site_fract_z
_atom_site_charge
Cu         Cu      0.77050   1.00000   0.00000   0.0000000000
Cu         Cu      0.69360  -0.00000   0.00000   0.0000000000
Cu         Cu      1.00000   0.77050   0.22950   0.0000000000
Cu         Cu      0.00000   0.69360   0.30640   0.0000000000
Cu         Cu      0.00000   0.22950   0.77050   0.0000000000
Cu         Cu      1.00000   0.30640   0.69360   0.0000000000
Cu         Cu      0.22950  -0.00000   0.00000   0.0000000000
Cu         Cu      0.30640   0.00000   0.00000   0.0000000000
Cu         Cu      0.77050   1.00000   0.22950   0.0000000000
Cu         Cu      0.69360  -0.00000   0.30640   0.0000000000
Cu         Cu      0.00000   0.22950  -0.00000   0.0000000000
Cu         Cu      0.00000   0.30640   0.00000   0.0000000000
Cu         Cu      0.00000   0.77050   0.00000   0.0000000000
Cu         Cu      0.00000   0.69360  -0.00000   0.0000000000
Cu         Cu      0.22950   1.00000   0.77050   0.0000000000
Cu         Cu      0.30640   1.00000   0.69360   0.0000000000
Cu         Cu      0.77050   0.22950   0.00000   0.0000000000
Cu         Cu      0.69360   0.30640   0.00000   0.0000000000
Cu         Cu      0.00000   0.00000   0.77050   0.0000000000
Cu         Cu      0.00000   0.00000   0.69360   0.0000000000
Cu         Cu      0.00000   0.00000   0.22950   0.0000000000
Cu         Cu      0.00000   0.00000   0.30640   0.0000000000
Cu         Cu      0.22950   0.77050  -0.00000   0.0000000000
Cu         Cu      0.30640   0.69360  -0.00000   0.0000000000
H          H       0.73560   0.85560   0.02440   0.0000000000
H          H       0.85560   0.73560   0.38440   0.0000000000
H          H       0.02440   0.38440   0.73560   0.0000000000
H          H       0.38440   0.02440   0.85560   0.0000000000
H          H       0.73560   0.02440   0.38440   0.0000000000
H          H       0.85560   0.38440   0.02440   0.0000000000
H          H       0.02440   0.73560   0.85560   0.0000000000
H          H       0.38440   0.85560   0.73560   0.0000000000
H          H       0.73560   0.38440   0.85560   0.0000000000
H          H       0.85560   0.02440   0.73560   0.0000000000
H          H       0.02440   0.85560   0.38440   0.0000000000
H          H       0.38440   0.73560   0.02440   0.0000000000
H          H       0.14440   0.26440   0.97560   0.0000000000
H          H       0.26440   0.14440   0.61560   0.0000000000
H          H       0.61560   0.97560   0.26440   0.0000000000
H          H       0.97560   0.61560   0.14440   0.0000000000
H          H       0.97560   0.26440   0.61560   0.0000000000
H          H       0.61560   0.14440   0.97560   0.0000000000
H          H       0.26440   0.97560   0.14440   0.0000000000
H          H       0.14440   0.61560   0.26440   0.0000000000
H          H       0.61560   0.26440   0.14440   0.0000000000
H          H       0.97560   0.14440   0.26440   0.0000000000
H          H       0.14440   0.97560   0.61560   0.0000000000
H          H       0.26440   0.61560   0.97560   0.0000000000
H          H       0.26440   0.14440   0.97560   0.0000000000
H          H       0.14440   0.26440   0.61560   0.0000000000
H          H       0.97560   0.61560   0.26440   0.0000000000
H          H       0.61560   0.97560   0.14440   0.0000000000
H          H       0.26440   0.97560   0.61560   0.0000000000
H          H       0.14440   0.61560   0.97560   0.0000000000
H          H       0.97560   0.26440   0.14440   0.0000000000
H          H       0.61560   0.14440   0.26440   0.0000000000
H          H       0.26440   0.61560   0.14440   0.0000000000
H          H       0.14440   0.97560   0.26440   0.0000000000
H          H       0.97560   0.14440   0.61560   0.0000000000
H          H       0.61560   0.26440   0.97560   0.0000000000
H          H       0.85560   0.73560   0.02440   0.0000000000
H          H       0.73560   0.85560   0.38440   0.0000000000
H          H       0.38440   0.02440   0.73560   0.0000000000
H          H       0.02440   0.38440   0.85560   0.0000000000
H          H       0.02440   0.73560   0.38440   0.0000000000
H          H       0.38440   0.85560   0.02440   0.0000000000
H          H       0.73560   0.02440   0.85560   0.0000000000
H          H       0.85560   0.38440   0.73560   0.0000000000
H          H       0.38440   0.73560   0.85560   0.0000000000
H          H       0.02440   0.85560   0.73560   0.0000000000
H          H       0.85560   0.02440   0.38440   0.0000000000
H          H       0.73560   0.38440   0.02440   0.0000000000
H          H       0.85670   0.85670   0.01030   0.0000000000
H          H       0.85670   0.85670   0.27630   0.0000000000
H          H       0.01030   0.27630   0.85670   0.0000000000
H          H       0.27630   0.01030   0.85670   0.0000000000
H          H       0.85670   0.01030   0.27630   0.0000000000
H          H       0.85670   0.27630   0.01030   0.0000000000
H          H       0.01030   0.85670   0.85670   0.0000000000
H          H       0.27630   0.85670   0.85670   0.0000000000
H          H       0.85670   0.27630   0.85670   0.0000000000
H          H       0.85670   0.01030   0.85670   0.0000000000
H          H       0.01030   0.85670   0.27630   0.0000000000
H          H       0.27630   0.85670   0.01030   0.0000000000
H          H       0.14330   0.14330   0.98970   0.0000000000
H          H       0.14330   0.14330   0.72370   0.0000000000
H          H       0.72370   0.98970   0.14330   0.0000000000
H          H       0.98970   0.72370   0.14330   0.0000000000
H          H       0.98970   0.14330   0.72370   0.0000000000
H          H       0.72370   0.14330   0.98970   0.0000000000
H          H       0.14330   0.98970   0.14330   0.0000000000
H          H       0.14330   0.72370   0.14330   0.0000000000
H          H       0.72370   0.14330   0.14330   0.0000000000
H          H       0.98970   0.14330   0.14330   0.0000000000
H          H       0.14330   0.98970   0.72370   0.0000000000
H          H       0.14330   0.72370   0.98970   0.0000000000
H          H       0.61160   0.72780   0.04900   0.0000000000
H          H       0.72780   0.61160   0.61160   0.0000000000
H          H       0.04900   0.61160   0.61160   0.0000000000
H          H       0.61160   0.04900   0.72780   0.0000000000
H          H       0.61160   0.04900   0.61160   0.0000000000
H          H       0.72780   0.61160   0.04900   0.0000000000
H          H       0.04900   0.61160   0.72780   0.0000000000
H          H       0.61160   0.72780   0.61160   0.0000000000
H          H       0.61160   0.61160   0.72780   0.0000000000
H          H       0.72780   0.04900   0.61160   0.0000000000
H          H       0.04900   0.72780   0.61160   0.0000000000
H          H       0.61160   0.61160   0.04900   0.0000000000
H          H       0.27220   0.38840   0.95100   0.0000000000
H          H       0.38840   0.27220   0.38840   0.0000000000
H          H       0.38840   0.95100   0.38840   0.0000000000
H          H       0.95100   0.38840   0.27220   0.0000000000
H          H       0.95100   0.38840   0.38840   0.0000000000
H          H       0.38840   0.27220   0.95100   0.0000000000
H          H       0.38840   0.95100   0.27220   0.0000000000
H          H       0.27220   0.38840   0.38840   0.0000000000
H          H       0.38840   0.38840   0.27220   0.0000000000
H          H       0.95100   0.27220   0.38840   0.0000000000
H          H       0.27220   0.95100   0.38840   0.0000000000
H          H       0.38840   0.38840   0.95100   0.0000000000
C          C       0.76916   0.91562   0.01112   0.0000000000
C          C       0.79089   0.85993   0.02223   0.0000000000
C          C       0.76622   0.83884   0.02660   0.0000000000
C          C       0.91562   0.76916   0.30410   0.0000000000
C          C       0.85993   0.79089   0.32695   0.0000000000
C          C       0.83884   0.76622   0.36834   0.0000000000
C          C       0.01112   0.30410   0.76916   0.0000000000
C          C       0.02223   0.32695   0.79089   0.0000000000
C          C       0.02660   0.36834   0.76622   0.0000000000
C          C       0.30410   0.01112   0.91562   0.0000000000
C          C       0.32695   0.02223   0.85993   0.0000000000
C          C       0.36834   0.02660   0.83884   0.0000000000
C          C       0.76916   0.01112   0.30410   0.0000000000
C          C       0.79089   0.02223   0.32695   0.0000000000
C          C       0.76622   0.02660   0.36834   0.0000000000
C          C       0.91562   0.30410   0.01112   0.0000000000
C          C       0.85993   0.32695   0.02223   0.0000000000
C          C       0.83884   0.36834   0.02660   0.0000000000
C          C       0.01112   0.76916   0.91562   0.0000000000
C          C       0.02223   0.79089   0.85993   0.0000000000
C          C       0.02660   0.76622   0.83884   0.0000000000
C          C       0.30410   0.91562   0.76916   0.0000000000
C          C       0.32695   0.85993   0.79089   0.0000000000
C          C       0.36834   0.83884   0.76622   0.0000000000
C          C       0.76916   0.30410   0.91562   0.0000000000
C          C       0.79089   0.32695   0.85993   0.0000000000
C          C       0.76622   0.36834   0.83884   0.0000000000
C          C       0.91562   0.01112   0.76916   0.0000000000
C          C       0.85993   0.02223   0.79089   0.0000000000
C          C       0.83884   0.02660   0.76622   0.0000000000
C          C       0.01112   0.91562   0.30410   0.0000000000
C          C       0.02223   0.85993   0.32695   0.0000000000
C          C       0.02660   0.83884   0.36834   0.0000000000
C          C       0.30410   0.76916   0.01112   0.0000000000
C          C       0.32695   0.79089   0.02223   0.0000000000
C          C       0.36834   0.76622   0.02660   0.0000000000
C          C       0.08438   0.23084   0.98888   0.0000000000
C          C       0.14007   0.20911   0.97777   0.0000000000
C          C       0.16116   0.23378   0.97340   0.0000000000
C          C       0.23084   0.08438   0.69590   0.0000000000
C          C       0.20911   0.14007   0.67305   0.0000000000
C          C       0.23378   0.16116   0.63166   0.0000000000
C          C       0.69590   0.98888   0.23084   0.0000000000
C          C       0.67305   0.97777   0.20911   0.0000000000
C          C       0.63166   0.97340   0.23378   0.0000000000
C          C       0.98888   0.69590   0.08438   0.0000000000
C          C       0.97777   0.67305   0.14007   0.0000000000
C          C       0.97340   0.63166   0.16116   0.0000000000
C          C       0.98888   0.23084   0.69590   0.0000000000
C          C       0.97777   0.20911   0.67305   0.0000000000
C          C       0.97340   0.23378   0.63166   0.0000000000
C          C       0.69590   0.08438   0.98888   0.0000000000
C          C       0.67305   0.14007   0.97777   0.0000000000
C          C       0.63166   0.16116   0.97340   0.0000000000
C          C       0.23084   0.98888   0.08438   0.0000000000
C          C       0.20911   0.97777   0.14007   0.0000000000
C          C       0.23378   0.97340   0.16116   0.0000000000
C          C       0.08438   0.69590   0.23084   0.0000000000
C          C       0.14007   0.67305   0.20911   0.0000000000
C          C       0.16116   0.63166   0.23378   0.0000000000
C          C       0.69590   0.23084   0.08438   0.0000000000
C          C       0.67305   0.20911   0.14007   0.0000000000
C          C       0.63166   0.23378   0.16116   0.0000000000
C          C       0.98888   0.08438   0.23084   0.0000000000
C          C       0.97777   0.14007   0.20911   0.0000000000
C          C       0.97340   0.16116   0.23378   0.0000000000
C          C       0.08438   0.98888   0.69590   0.0000000000
C          C       0.14007   0.97777   0.67305   0.0000000000
C          C       0.16116   0.97340   0.63166   0.0000000000
C          C       0.23084   0.69590   0.98888   0.0000000000
C          C       0.20911   0.67305   0.97777   0.0000000000
C          C       0.23378   0.63166   0.97340   0.0000000000
C          C       0.23084   0.08438   0.98888   0.0000000000
C          C       0.20911   0.14007   0.97777   0.0000000000
C          C       0.23378   0.16116   0.97340   0.0000000000
C          C       0.08438   0.23084   0.69590   0.0000000000
C          C       0.14007   0.20911   0.67305   0.0000000000
C          C       0.16116   0.23378   0.63166   0.0000000000
C          C       0.98888   0.69590   0.23084   0.0000000000
C          C       0.97777   0.67305   0.20911   0.0000000000
C          C       0.97340   0.63166   0.23378   0.0000000000
C          C       0.69590   0.98888   0.08438   0.0000000000
C          C       0.67305   0.97777   0.14007   0.0000000000
C          C       0.63166   0.97340   0.16116   0.0000000000
C          C       0.23084   0.98888   0.69590   0.0000000000
C          C       0.20911   0.97777   0.67305   0.0000000000
C          C       0.23378   0.97340   0.63166   0.0000000000
C          C       0.08438   0.69590   0.98888   0.0000000000
C          C       0.14007   0.67305   0.97777   0.0000000000
C          C       0.16116   0.63166   0.97340   0.0000000000
C          C       0.98888   0.23084   0.08438   0.0000000000
C          C       0.97777   0.20911   0.14007   0.0000000000
C          C       0.97340   0.23378   0.16116   0.0000000000
C          C       0.69590   0.08438   0.23084   0.0000000000
C          C       0.67305   0.14007   0.20911   0.0000000000
C          C       0.63166   0.16116   0.23378   0.0000000000
C          C       0.23084   0.69590   0.08438   0.0000000000
C          C       0.20911   0.67305   0.14007   0.0000000000
C          C       0.23378   0.63166   0.16116   0.0000000000
C          C       0.08438   0.98888   0.23084   0.0000000000
C          C       0.14007   0.97777   0.20911   0.0000000000
C          C       0.16116   0.97340   0.23378   0.0000000000
C          C       0.98888   0.08438   0.69590   0.0000000000
C          C       0.97777   0.14007   0.67305   0.0000000000
C          C       0.97340   0.16116   0.63166   0.0000000000
C          C       0.69590   0.23084   0.98888   0.0000000000
C          C       0.67305   0.20911   0.97777   0.0000000000
C          C       0.63166   0.23378   0.97340   0.0000000000
C          C       0.91562   0.76916   0.01112   0.0000000000
C          C       0.85993   0.79089   0.02223   0.0000000000
C          C       0.83884   0.76622   0.02660   0.0000000000
C          C       0.76916   0.91562   0.30410   0.0000000000
C          C       0.79089   0.85993   0.32695   0.0000000000
C          C       0.76622   0.83884   0.36834   0.0000000000
C          C       0.30410   0.01112   0.76916   0.0000000000
C          C       0.32695   0.02223   0.79089   0.0000000000
C          C       0.36834   0.02660   0.76622   0.0000000000
C          C       0.01112   0.30410   0.91562   0.0000000000
C          C       0.02223   0.32695   0.85993   0.0000000000
C          C       0.02660   0.36834   0.83884   0.0000000000
C          C       0.01112   0.76916   0.30410   0.0000000000
C          C       0.02223   0.79089   0.32695   0.0000000000
C          C       0.02660   0.76622   0.36834   0.0000000000
C          C       0.30410   0.91562   0.01112   0.0000000000
C          C       0.32695   0.85993   0.02223   0.0000000000
C          C       0.36834   0.83884   0.02660   0.0000000000
C          C       0.76916   0.01112   0.91562   0.0000000000
C          C       0.79089   0.02223   0.85993   0.0000000000
C          C       0.76622   0.02660   0.83884   0.0000000000
C          C       0.91562   0.30410   0.76916   0.0000000000
C          C       0.85993   0.32695   0.79089   0.0000000000
C          C       0.83884   0.36834   0.76622   0.0000000000
C          C       0.30410   0.76916   0.91562   0.0000000000
C          C       0.32695   0.79089   0.85993   0.0000000000
C          C       0.36834   0.76622   0.83884   0.0000000000
C          C       0.01112   0.91562   0.76916   0.0000000000
C          C       0.02223   0.85993   0.79089   0.0000000000
C          C       0.02660   0.83884   0.76622   0.0000000000
C          C       0.91562   0.01112   0.30410   0.0000000000
C          C       0.85993   0.02223   0.32695   0.0000000000
C          C       0.83884   0.02660   0.36834   0.0000000000
C          C       0.76916   0.30410   0.01112   0.0000000000
C          C       0.79089   0.32695   0.02223   0.0000000000
C          C       0.76622   0.36834   0.02660   0.0000000000
C          C       0.83908   0.83908   0.01704   0.0000000000
C          C       0.78790   0.78790   0.03510   0.0000000000
C          C       0.76250   0.76250   0.03718   0.0000000000
C          C       0.74050   0.74050   0.04510   0.0000000000
C          C       0.71760   0.71760   0.04560   0.0000000000
C          C       0.69550   0.69550   0.05330   0.0000000000
C          C       0.67070   0.67070   0.05590   0.0000000000
C          C       0.83908   0.83908   0.30480   0.0000000000
C          C       0.78790   0.78790   0.38910   0.0000000000
C          C       0.76250   0.76250   0.43782   0.0000000000
C          C       0.74050   0.74050   0.47390   0.0000000000
C          C       0.71760   0.71760   0.51920   0.0000000000
C          C       0.69550   0.69550   0.55570   0.0000000000
C          C       0.67070   0.67070   0.60270   0.0000000000
C          C       0.01704   0.30480   0.83908   0.0000000000
C          C       0.03510   0.38910   0.78790   0.0000000000
C          C       0.03718   0.43782   0.76250   0.0000000000
C          C       0.04510   0.47390   0.74050   0.0000000000
C          C       0.04560   0.51920   0.71760   0.0000000000
C          C       0.05330   0.55570   0.69550   0.0000000000
C          C       0.05590   0.60270   0.67070   0.0000000000
C          C       0.30480   0.01704   0.83908   0.0000000000
C          C       0.38910   0.03510   0.78790   0.0000000000
C          C       0.43782   0.03718   0.76250   0.0000000000
C          C       0.47390   0.04510   0.74050   0.0000000000
C          C       0.51920   0.04560   0.71760   0.0000000000
C          C       0.55570   0.05330   0.69550   0.0000000000
C          C       0.60270   0.05590   0.67070   0.0000000000
C          C       0.83908   0.01704   0.30480   0.0000000000
C          C       0.78790   0.03510   0.38910   0.0000000000
C          C       0.76250   0.03718   0.43782   0.0000000000
C          C       0.74050   0.04510   0.47390   0.0000000000
C          C       0.71760   0.04560   0.51920   0.0000000000
C          C       0.69550   0.05330   0.55570   0.0000000000
C          C       0.67070   0.05590   0.60270   0.0000000000
C          C       0.83908   0.30480   0.01704   0.0000000000
C          C       0.78790   0.38910   0.03510   0.0000000000
C          C       0.76250   0.43782   0.03718   0.0000000000
C          C       0.74050   0.47390   0.04510   0.0000000000
C          C       0.71760   0.51920   0.04560   0.0000000000
C          C       0.69550   0.55570   0.05330   0.0000000000
C          C       0.67070   0.60270   0.05590   0.0000000000
C          C       0.01704   0.83908   0.83908   0.0000000000
C          C       0.03510   0.78790   0.78790   0.0000000000
C          C       0.03718   0.76250   0.76250   0.0000000000
C          C       0.04510   0.74050   0.74050   0.0000000000
C          C       0.04560   0.71760   0.71760   0.0000000000
C          C       0.05330   0.69550   0.69550   0.0000000000
C          C       0.05590   0.67070   0.67070   0.0000000000
C          C       0.30480   0.83908   0.83908   0.0000000000
C          C       0.38910   0.78790   0.78790   0.0000000000
C          C       0.43782   0.76250   0.76250   0.0000000000
C          C       0.47390   0.74050   0.74050   0.0000000000
C          C       0.51920   0.71760   0.71760   0.0000000000
C          C       0.55570   0.69550   0.69550   0.0000000000
C          C       0.60270   0.67070   0.67070   0.0000000000
C          C       0.83908   0.30480   0.83908   0.0000000000
C          C       0.78790   0.38910   0.78790   0.0000000000
C          C       0.76250   0.43782   0.76250   0.0000000000
C          C       0.74050   0.47390   0.74050   0.0000000000
C          C       0.71760   0.51920   0.71760   0.0000000000
C          C       0.69550   0.55570   0.69550   0.0000000000
C          C       0.67070   0.60270   0.67070   0.0000000000
C          C       0.83908   0.01704   0.83908   0.0000000000
C          C       0.78790   0.03510   0.78790   0.0000000000
C          C       0.76250   0.03718   0.76250   0.0000000000
C          C       0.74050   0.04510   0.74050   0.0000000000
C          C       0.71760   0.04560   0.71760   0.0000000000
C          C       0.69550   0.05330   0.69550   0.0000000000
C          C       0.67070   0.05590   0.67070   0.0000000000
C          C       0.01704   0.83908   0.30480   0.0000000000
C          C       0.03510   0.78790   0.38910   0.0000000000
C          C       0.03718   0.76250   0.43782   0.0000000000
C          C       0.04510   0.74050   0.47390   0.0000000000
C          C       0.04560   0.71760   0.51920   0.0000000000
C          C       0.05330   0.69550   0.55570   0.0000000000
C          C       0.05590   0.67070   0.60270   0.0000000000
C          C       0.30480   0.83908   0.01704   0.0000000000
C          C       0.38910   0.78790   0.03510   0.0000000000
C          C       0.43782   0.76250   0.03718   0.0000000000
C          C       0.47390   0.74050   0.04510   0.0000000000
C          C       0.51920   0.71760   0.04560   0.0000000000
C          C       0.55570   0.69550   0.05330   0.0000000000
C          C       0.60270   0.67070   0.05590   0.0000000000
C          C       0.16092   0.16092   0.98296   0.0000000000
C          C       0.21210   0.21210   0.96490   0.0000000000
C          C       0.23750   0.23750   0.96282   0.0000000000
C          C       0.25950   0.25950   0.95490   0.0000000000
C          C       0.28240   0.28240   0.95440   0.0000000000
C          C       0.30450   0.30450   0.94670   0.0000000000
C          C       0.32930   0.32930   0.94410   0.0000000000
C          C       0.16092   0.16092   0.69520   0.0000000000
C          C       0.21210   0.21210   0.61090   0.0000000000
C          C       0.23750   0.23750   0.56218   0.0000000000
C          C       0.25950   0.25950   0.52610   0.0000000000
C          C       0.28240   0.28240   0.48080   0.0000000000
C          C       0.30450   0.30450   0.44430   0.0000000000
C          C       0.32930   0.32930   0.39730   0.0000000000
C          C       0.69520   0.98296   0.16092   0.0000000000
C          C       0.61090   0.96490   0.21210   0.0000000000
C          C       0.56218   0.96282   0.23750   0.0000000000
C          C       0.52610   0.95490   0.25950   0.0000000000
C          C       0.48080   0.95440   0.28240   0.0000000000
C          C       0.44430   0.94670   0.30450   0.0000000000
C          C       0.39730   0.94410   0.32930   0.0000000000
C          C       0.98296   0.69520   0.16092   0.0000000000
C          C       0.96490   0.61090   0.21210   0.0000000000
C          C       0.96282   0.56218   0.23750   0.0000000000
C          C       0.95490   0.52610   0.25950   0.0000000000
C          C       0.95440   0.48080   0.28240   0.0000000000
C          C       0.94670   0.44430   0.30450   0.0000000000
C          C       0.94410   0.39730   0.32930   0.0000000000
C          C       0.98296   0.16092   0.69520   0.0000000000
C          C       0.96490   0.21210   0.61090   0.0000000000
C          C       0.96282   0.23750   0.56218   0.0000000000
C          C       0.95490   0.25950   0.52610   0.0000000000
C          C       0.95440   0.28240   0.48080   0.0000000000
C          C       0.94670   0.30450   0.44430   0.0000000000
C          C       0.94410   0.32930   0.39730   0.0000000000
C          C       0.69520   0.16092   0.98296   0.0000000000
C          C       0.61090   0.21210   0.96490   0.0000000000
C          C       0.56218   0.23750   0.96282   0.0000000000
C          C       0.52610   0.25950   0.95490   0.0000000000
C          C       0.48080   0.28240   0.95440   0.0000000000
C          C       0.44430   0.30450   0.94670   0.0000000000
C          C       0.39730   0.32930   0.94410   0.0000000000
C          C       0.16092   0.98296   0.16092   0.0000000000
C          C       0.21210   0.96490   0.21210   0.0000000000
C          C       0.23750   0.96282   0.23750   0.0000000000
C          C       0.25950   0.95490   0.25950   0.0000000000
C          C       0.28240   0.95440   0.28240   0.0000000000
C          C       0.30450   0.94670   0.30450   0.0000000000
C          C       0.32930   0.94410   0.32930   0.0000000000
C          C       0.16092   0.69520   0.16092   0.0000000000
C          C       0.21210   0.61090   0.21210   0.0000000000
C          C       0.23750   0.56218   0.23750   0.0000000000
C          C       0.25950   0.52610   0.25950   0.0000000000
C          C       0.28240   0.48080   0.28240   0.0000000000
C          C       0.30450   0.44430   0.30450   0.0000000000
C          C       0.32930   0.39730   0.32930   0.0000000000
C          C       0.69520   0.16092   0.16092   0.0000000000
C          C       0.61090   0.21210   0.21210   0.0000000000
C          C       0.56218   0.23750   0.23750   0.0000000000
C          C       0.52610   0.25950   0.25950   0.0000000000
C          C       0.48080   0.28240   0.28240   0.0000000000
C          C       0.44430   0.30450   0.30450   0.0000000000
C          C       0.39730   0.32930   0.32930   0.0000000000
C          C       0.98296   0.16092   0.16092   0.0000000000
C          C       0.96490   0.21210   0.21210   0.0000000000
C          C       0.96282   0.23750   0.23750   0.0000000000
C          C       0.95490   0.25950   0.25950   0.0000000000
C          C       0.95440   0.28240   0.28240   0.0000000000
C          C       0.94670   0.30450   0.30450   0.0000000000
C          C       0.94410   0.32930   0.32930   0.0000000000
C          C       0.16092   0.98296   0.69520   0.0000000000
C          C       0.21210   0.96490   0.61090   0.0000000000
C          C       0.23750   0.96282   0.56218   0.0000000000
C          C       0.25950   0.95490   0.52610   0.0000000000
C          C       0.28240   0.95440   0.48080   0.0000000000
C          C       0.30450   0.94670   0.44430   0.0000000000
C          C       0.32930   0.94410   0.39730   0.0000000000
C          C       0.16092   0.69520   0.98296   0.0000000000
C          C       0.21210   0.61090   0.96490   0.0000000000
C          C       0.23750   0.56218   0.96282   0.0000000000
C          C       0.25950   0.52610   0.95490   0.0000000000
C          C       0.28240   0.48080   0.95440   0.0000000000
C          C       0.30450   0.44430   0.94670   0.0000000000
C          C       0.32930   0.39730   0.94410   0.0000000000
C          C       0.62590   0.69530   0.05290   0.0000000000
C          C       0.69530   0.62590   0.62590   0.0000000000
C          C       0.05290   0.62590   0.62590   0.0000000000
C          C       0.62590   0.05290   0.69530   0.0000000000
C          C       0.62590   0.05290   0.62590   0.0000000000
C          C       0.69530   0.62590   0.05290   0.0000000000
C          C       0.05290   0.62590   0.69530   0.0000000000
C          C       0.62590   0.69530   0.62590   0.0000000000
C          C       0.62590   0.62590   0.69530   0.0000000000
C          C       0.69530   0.05290   0.62590   0.0000000000
C          C       0.05290   0.69530   0.62590   0.0000000000
C          C       0.62590   0.62590   0.05290   0.0000000000
C          C       0.30470   0.37410   0.94710   0.0000000000
C          C       0.37410   0.30470   0.37410   0.0000000000
C          C       0.37410   0.94710   0.37410   0.0000000000
C          C       0.94710   0.37410   0.30470   0.0000000000
C          C       0.94710   0.37410   0.37410   0.0000000000
C          C       0.37410   0.30470   0.94710   0.0000000000
C          C       0.37410   0.94710   0.30470   0.0000000000
C          C       0.30470   0.37410   0.37410   0.0000000000
C          C       0.37410   0.37410   0.30470   0.0000000000
C          C       0.94710   0.30470   0.37410   0.0000000000
C          C       0.30470   0.94710   0.37410   0.0000000000
C          C       0.37410   0.37410   0.94710   0.0000000000
O          O       0.79238   0.93262   0.01122   0.0000000000
O          O       0.72792   0.93152   0.01086   0.0000000000
O          O       0.93262   0.79238   0.26378   0.0000000000
O          O       0.93152   0.72792   0.32970   0.0000000000
O          O       0.01122   0.26378   0.79238   0.0000000000
O          O       0.01086   0.32970   0.72792   0.0000000000
O          O       0.26378   0.01122   0.93262   0.0000000000
O          O       0.32970   0.01086   0.93152   0.0000000000
O          O       0.79238   0.01122   0.26378   0.0000000000
O          O       0.72792   0.01086   0.32970   0.0000000000
O          O       0.93262   0.26378   0.01122   0.0000000000
O          O       0.93152   0.32970   0.01086   0.0000000000
O          O       0.01122   0.79238   0.93262   0.0000000000
O          O       0.01086   0.72792   0.93152   0.0000000000
O          O       0.26378   0.93262   0.79238   0.0000000000
O          O       0.32970   0.93152   0.72792   0.0000000000
O          O       0.79238   0.26378   0.93262   0.0000000000
O          O       0.72792   0.32970   0.93152   0.0000000000
O          O       0.93262   0.01122   0.79238   0.0000000000
O          O       0.93152   0.01086   0.72792   0.0000000000
O          O       0.01122   0.93262   0.26378   0.0000000000
O          O       0.01086   0.93152   0.32970   0.0000000000
O          O       0.26378   0.79238   0.01122   0.0000000000
O          O       0.32970   0.72792   0.01086   0.0000000000
O          O       0.06738   0.20762   0.98878   0.0000000000
O          O       0.06848   0.27208   0.98914   0.0000000000
O          O       0.20762   0.06738   0.73622   0.0000000000
O          O       0.27208   0.06848   0.67030   0.0000000000
O          O       0.73622   0.98878   0.20762   0.0000000000
O          O       0.67030   0.98914   0.27208   0.0000000000
O          O       0.98878   0.73622   0.06738   0.0000000000
O          O       0.98914   0.67030   0.06848   0.0000000000
O          O       0.98878   0.20762   0.73622   0.0000000000
O          O       0.98914   0.27208   0.67030   0.0000000000
O          O       0.73622   0.06738   0.98878   0.0000000000
O          O       0.67030   0.06848   0.98914   0.0000000000
O          O       0.20762   0.98878   0.06738   0.0000000000
O          O       0.27208   0.98914   0.06848   0.0000000000
O          O       0.06738   0.73622   0.20762   0.0000000000
O          O       0.06848   0.67030   0.27208   0.0000000000
O          O       0.73622   0.20762   0.06738   0.0000000000
O          O       0.67030   0.27208   0.06848   0.0000000000
O          O       0.98878   0.06738   0.20762   0.0000000000
O          O       0.98914   0.06848   0.27208   0.0000000000
O          O       0.06738   0.98878   0.73622   0.0000000000
O          O       0.06848   0.98914   0.67030   0.0000000000
O          O       0.20762   0.73622   0.98878   0.0000000000
O          O       0.27208   0.67030   0.98914   0.0000000000
O          O       0.20762   0.06738   0.98878   0.0000000000
O          O       0.27208   0.06848   0.98914   0.0000000000
O          O       0.06738   0.20762   0.73622   0.0000000000
O          O       0.06848   0.27208   0.67030   0.0000000000
O          O       0.98878   0.73622   0.20762   0.0000000000
O          O       0.98914   0.67030   0.27208   0.0000000000
O          O       0.73622   0.98878   0.06738   0.0000000000
O          O       0.67030   0.98914   0.06848   0.0000000000
O          O       0.20762   0.98878   0.73622   0.0000000000
O          O       0.27208   0.98914   0.67030   0.0000000000
O          O       0.06738   0.73622   0.98878   0.0000000000
O          O       0.06848   0.67030   0.98914   0.0000000000
O          O       0.98878   0.20762   0.06738   0.0000000000
O          O       0.98914   0.27208   0.06848   0.0000000000
O          O       0.73622   0.06738   0.20762   0.0000000000
O          O       0.67030   0.06848   0.27208   0.0000000000
O          O       0.20762   0.73622   0.06738   0.0000000000
O          O       0.27208   0.67030   0.06848   0.0000000000
O          O       0.06738   0.98878   0.20762   0.0000000000
O          O       0.06848   0.98914   0.27208   0.0000000000
O          O       0.98878   0.06738   0.73622   0.0000000000
O          O       0.98914   0.06848   0.67030   0.0000000000
O          O       0.73622   0.20762   0.98878   0.0000000000
O          O       0.67030   0.27208   0.98914   0.0000000000
O          O       0.93262   0.79238   0.01122   0.0000000000
O          O       0.93152   0.72792   0.01086   0.0000000000
O          O       0.79238   0.93262   0.26378   0.0000000000
O          O       0.72792   0.93152   0.32970   0.0000000000
O          O       0.26378   0.01122   0.79238   0.0000000000
O          O       0.32970   0.01086   0.72792   0.0000000000
O          O       0.01122   0.26378   0.93262   0.0000000000
O          O       0.01086   0.32970   0.93152   0.0000000000
O          O       0.01122   0.79238   0.26378   0.0000000000
O          O       0.01086   0.72792   0.32970   0.0000000000
O          O       0.26378   0.93262   0.01122   0.0000000000
O          O       0.32970   0.93152   0.01086   0.0000000000
O          O       0.79238   0.01122   0.93262   0.0000000000
O          O       0.72792   0.01086   0.93152   0.0000000000
O          O       0.93262   0.26378   0.79238   0.0000000000
O          O       0.93152   0.32970   0.72792   0.0000000000
O          O       0.26378   0.79238   0.93262   0.0000000000
O          O       0.32970   0.72792   0.93152   0.0000000000
O          O       0.01122   0.93262   0.79238   0.0000000000
O          O       0.01086   0.93152   0.72792   0.0000000000
O          O       0.93262   0.01122   0.26378   0.0000000000
O          O       0.93152   0.01086   0.32970   0.0000000000
O          O       0.79238   0.26378   0.01122   0.0000000000
O          O       0.72792   0.32970   0.01086   0.0000000000
