data_crystal
 
_cell_length_a    14.27176
_cell_length_b    14.27176
_cell_length_c    14.27176
_cell_angle_alpha 107.07221
_cell_angle_beta  107.07221
_cell_angle_gamma 107.07221
 
_symmetry_space_group_name_Hall 'P 1'
_symmetry_space_group_name_H-M  'P 1'
 
loop_
_symmetry_equiv_pos_as_xyz
 'x,y,z' 
 
loop_
_atom_site_label
_atom_site_type_symbol
_atom_site_fract_x
_atom_site_fract_y
_atom_site_fract_z
_atom_site_charge
Zn         Zn      0.75000   0.17801   0.32199   0.0000000000
Zn         Zn      0.25000   0.82199   0.67801   0.0000000000
Zn         Zn      0.32199   0.75000   0.17801   0.0000000000
Zn         Zn      0.67801   0.25000   0.82199   0.0000000000
Zn         Zn      0.17801   0.32199   0.75000   0.0000000000
Zn         Zn      0.82199   0.67801   0.25000   0.0000000000
Zn         Zn      0.75000   0.30961   0.19039   0.0000000000
Zn         Zn      0.25000   0.69039   0.80961   0.0000000000
Zn         Zn      0.19039   0.75000   0.30961   0.0000000000
Zn         Zn      0.80961   0.25000   0.69039   0.0000000000
Zn         Zn      0.30961   0.19039   0.75000   0.0000000000
Zn         Zn      0.69039   0.80961   0.25000   0.0000000000
H          H       0.54630   0.99430   0.17020   0.0000000000
H          H       0.45370   0.00570   0.82980   0.0000000000
H          H       0.17020   0.54630   0.99430   0.0000000000
H          H       0.82980   0.45370   0.00570   0.0000000000
H          H       0.99430   0.17020   0.54630   0.0000000000
H          H       0.00570   0.82980   0.45370   0.0000000000
H          H       0.32980   0.50570   0.95370   0.0000000000
H          H       0.67020   0.49430   0.04630   0.0000000000
H          H       0.50570   0.95370   0.32980   0.0000000000
H          H       0.49430   0.04630   0.67020   0.0000000000
H          H       0.95370   0.32980   0.50570   0.0000000000
H          H       0.04630   0.67020   0.49430   0.0000000000
C          C       0.59620   0.07900   0.08840   0.0000000000
C          C       0.40380   0.92100   0.91160   0.0000000000
C          C       0.08840   0.59620   0.07900   0.0000000000
C          C       0.91160   0.40380   0.92100   0.0000000000
C          C       0.07900   0.08840   0.59620   0.0000000000
C          C       0.92100   0.91160   0.40380   0.0000000000
C          C       0.41160   0.42100   0.90380   0.0000000000
C          C       0.58840   0.57900   0.09620   0.0000000000
C          C       0.42100   0.90380   0.41160   0.0000000000
C          C       0.57900   0.09620   0.58840   0.0000000000
C          C       0.90380   0.41160   0.42100   0.0000000000
C          C       0.09620   0.58840   0.57900   0.0000000000
C          C       0.56640   0.08320   0.98620   0.0000000000
C          C       0.43360   0.91680   0.01380   0.0000000000
C          C       0.98620   0.56640   0.08320   0.0000000000
C          C       0.01380   0.43360   0.91680   0.0000000000
C          C       0.08320   0.98620   0.56640   0.0000000000
C          C       0.91680   0.01380   0.43360   0.0000000000
C          C       0.51380   0.41680   0.93360   0.0000000000
C          C       0.48620   0.58320   0.06640   0.0000000000
C          C       0.41680   0.93360   0.51380   0.0000000000
C          C       0.58320   0.06640   0.48620   0.0000000000
C          C       0.93360   0.51380   0.41680   0.0000000000
C          C       0.06640   0.48620   0.58320   0.0000000000
C          C       0.52880   0.99650   0.10300   0.0000000000
C          C       0.47120   0.00350   0.89700   0.0000000000
C          C       0.10300   0.52880   0.99650   0.0000000000
C          C       0.89700   0.47120   0.00350   0.0000000000
C          C       0.99650   0.10300   0.52880   0.0000000000
C          C       0.00350   0.89700   0.47120   0.0000000000
C          C       0.39700   0.50350   0.97120   0.0000000000
C          C       0.60300   0.49650   0.02880   0.0000000000
C          C       0.50350   0.97120   0.39700   0.0000000000
C          C       0.49650   0.02880   0.60300   0.0000000000
C          C       0.97120   0.39700   0.50350   0.0000000000
C          C       0.02880   0.60300   0.49650   0.0000000000
C          C       0.66310   0.13710   0.46290   0.0000000000
C          C       0.33690   0.86290   0.53710   0.0000000000
C          C       0.46290   0.66310   0.13710   0.0000000000
C          C       0.53710   0.33690   0.86290   0.0000000000
C          C       0.13710   0.46290   0.66310   0.0000000000
C          C       0.86290   0.53710   0.33690   0.0000000000
C          C       0.03710   0.36290   0.83690   0.0000000000
C          C       0.96290   0.63710   0.16310   0.0000000000
C          C       0.36290   0.83690   0.03710   0.0000000000
C          C       0.63710   0.16310   0.96290   0.0000000000
C          C       0.83690   0.03710   0.36290   0.0000000000
C          C       0.16310   0.96290   0.63710   0.0000000000
O          O       0.75900   0.19590   0.53200   0.0000000000
O          O       0.24100   0.80410   0.46800   0.0000000000
O          O       0.53200   0.75900   0.19590   0.0000000000
O          O       0.46800   0.24100   0.80410   0.0000000000
O          O       0.19590   0.53200   0.75900   0.0000000000
O          O       0.80410   0.46800   0.24100   0.0000000000
O          O       0.96800   0.30410   0.74100   0.0000000000
O          O       0.03200   0.69590   0.25900   0.0000000000
O          O       0.30410   0.74100   0.96800   0.0000000000
O          O       0.69590   0.25900   0.03200   0.0000000000
O          O       0.74100   0.96800   0.30410   0.0000000000
O          O       0.25900   0.03200   0.69590   0.0000000000
O          O       0.63860   0.13040   0.36600   0.0000000000
O          O       0.36140   0.86960   0.63400   0.0000000000
O          O       0.36600   0.63860   0.13040   0.0000000000
O          O       0.63400   0.36140   0.86960   0.0000000000
O          O       0.13040   0.36600   0.63860   0.0000000000
O          O       0.86960   0.63400   0.36140   0.0000000000
O          O       0.13400   0.36960   0.86140   0.0000000000
O          O       0.86600   0.63040   0.13860   0.0000000000
O          O       0.36960   0.86140   0.13400   0.0000000000
O          O       0.63040   0.13860   0.86600   0.0000000000
O          O       0.86140   0.13400   0.36960   0.0000000000
O          O       0.13860   0.86600   0.63040   0.0000000000
O          O       0.68950   0.15680   0.17170   0.0000000000
O          O       0.31050   0.84320   0.82830   0.0000000000
O          O       0.17170   0.68950   0.15680   0.0000000000
O          O       0.82830   0.31050   0.84320   0.0000000000
O          O       0.15680   0.17170   0.68950   0.0000000000
O          O       0.84320   0.82830   0.31050   0.0000000000
O          O       0.32830   0.34320   0.81050   0.0000000000
O          O       0.67170   0.65680   0.18950   0.0000000000
O          O       0.34320   0.81050   0.32830   0.0000000000
O          O       0.65680   0.18950   0.67170   0.0000000000
O          O       0.81050   0.32830   0.34320   0.0000000000
O          O       0.18950   0.67170   0.65680   0.0000000000
