
#######################################################################
#
#                 Cambridge Crystallographic Data Centre
#                                CCDC 
#
#######################################################################
#
# If this CIF has been generated from an entry in the Cambridge 
# Structural Database, then it will include bibliographic, chemical, 
# crystal, experimental, refinement or atomic coordinate data resulting 
# from the CCDC's data processing and validation procedures.
#
#######################################################################

data_UTSA-20_RT
_symmetry_cell_setting           hexagonal
_symmetry_space_group_name_H-M   'P 63/m c m'
_symmetry_Int_Tables_number      193
_space_group_name_Hall           "-P 6c 2'"
loop_
_symmetry_equiv_pos_site_id
_symmetry_equiv_pos_as_xyz
1 x,y,z
2 x-y,x,1/2+z
3 -y,x-y,z
4 -x,-y,1/2+z
5 -x+y,-x,z
6 y,-x+y,1/2+z
7 -x+y,y,1/2+z
8 -x,-x+y,z
9 -y,-x,1/2+z
10 x-y,-y,z
11 x,x-y,1/2+z
12 y,x,z
13 -x,-y,-z
14 -x+y,-x,1/2-z
15 y,-x+y,-z
16 x,y,1/2-z
17 x-y,x,-z
18 -y,x-y,1/2-z
19 x-y,-y,1/2-z
20 x,x-y,-z
21 y,x,1/2-z
22 -x+y,y,-z
23 -x,-x+y,1/2-z
24 -y,-x,-z
_cell_length_a                   22.2866(14)
_cell_length_b                   22.2866
_cell_length_c                   12.8164(12)
_cell_angle_alpha                90.0
_cell_angle_beta                 90.0
_cell_angle_gamma                120.0
_cell_volume                     5512.95
loop_
_atom_site_label
_atom_site_type_symbol
_atom_site_fract_x
_atom_site_fract_y
_atom_site_fract_z
C1 C 0.1956 0.4803 -0.0524
C2 C 0.0957 0.3720 -0.1175
C3 C 0.1596 0.4077 -0.0532
O4 O 0.0734 0.3090 -0.1423
O5 O 0.0708 0.4105 -0.1450
H6 H 0.1741 0.5072 -0.0960
Cu7 Cu 0.3791 0.3791 0.25
Cu8 Cu 0.2687 0.2687 0.25
C9 C 0.2969 0.5938 0.0
C10 C 0.2588 0.5175 0.0
C11 C 0.1854 0.3707 0.0
H12 H 0.1572 0.3143 0.0
C13 C 0.3694 0.6306 0.0
H14 H 0.3977 0.6023 0.0
C9 C 0.4062 0.7031 0.0
C10 C 0.4825 0.7413 0.0
C13 C 0.3694 0.7388 0.0
H14 H 0.3977 0.7954 0.0
C1 C 0.5197 0.7153 -0.0524
C3 C 0.5923 0.7519 -0.0532
H6 H 0.4928 0.6669 -0.0960
C2 C 0.6280 0.7237 -0.1175
O4 O 0.6910 0.7644 -0.1423
O5 O 0.5895 0.6603 -0.1450
C11 C 0.6293 0.8147 0.0
H12 H 0.6857 0.8429 0.0
C9 C 0.2969 0.7031 0.0
C10 C 0.2587 0.7412 0.0
C13 C 0.2612 0.6306 0.0
H14 H 0.2046 0.6023 0.0
C1 C 0.2847 0.8044 -0.0524
C3 C 0.2481 0.8404 -0.0532
H6 H 0.3331 0.8259 -0.0960
C2 C 0.2763 0.9043 -0.1175
O4 O 0.2356 0.9266 -0.1423
O5 O 0.3397 0.9292 -0.1450
C11 C 0.1853 0.8146 0.0
H12 H 0.1571 0.8428 0.0
C1 C 0.1956 0.7153 0.0524
C3 C 0.1596 0.7519 0.0532
H6 H 0.1741 0.6669 0.0960
C2 C 0.0957 0.7237 0.1175
O4 O 0.0734 0.7644 0.1423
O5 O 0.0708 0.6603 0.1450
C1 C 0.2847 0.4803 0.0524
C3 C 0.2481 0.4077 0.0532
H6 H 0.3331 0.5072 0.0960
C2 C 0.2763 0.3720 0.1175
O4 O 0.2356 0.3090 0.1423
O5 O 0.3397 0.4105 0.1450
C1 C 0.5197 0.8044 0.0524
C3 C 0.5923 0.8404 0.0532
H6 H 0.4928 0.8259 0.0960
C2 C 0.6280 0.9043 0.1175
O4 O 0.6910 0.9266 0.1423
O5 O 0.5895 0.9292 0.1450
Cu7 Cu 0.6209 1.0000 0.25
Cu8 Cu 0.7313 1.0000 0.25
Cu7 Cu 0.0000 0.6209 0.25
Cu8 Cu 0.0000 0.7313 0.25
C1 C -0.1956 0.5197 0.0524
C2 C -0.0957 0.6280 0.1175
C3 C -0.1596 0.5923 0.0532
O4 O -0.0734 0.6910 0.1423
O5 O -0.0708 0.5895 0.1450
H6 H -0.1741 0.4928 0.0960
C9 C -0.2969 0.4062 0.0
C10 C -0.2588 0.4825 0.0
C11 C -0.1854 0.6293 0.0
H12 H -0.1572 0.6857 0.0
C13 C -0.3694 0.3694 0.0
H14 H -0.3977 0.3977 0.0
C9 C -0.4062 0.2969 0.0
C10 C -0.4825 0.2587 0.0
C13 C -0.3694 0.2612 0.0
H14 H -0.3977 0.2046 0.0
C1 C -0.5197 0.2847 0.0524
C3 C -0.5923 0.2481 0.0532
H6 H -0.4928 0.3331 0.0960
C2 C -0.6280 0.2763 0.1175
O4 O -0.6910 0.2356 0.1423
O5 O -0.5895 0.3397 0.1450
C11 C -0.6293 0.1853 0.0
H12 H -0.6857 0.1571 0.0
C9 C -0.2969 0.2969 0.0
C10 C -0.2587 0.2588 0.0
C13 C -0.2612 0.3694 0.0
H14 H -0.2046 0.3977 0.0
C1 C -0.2847 0.1956 0.0524
C3 C -0.2481 0.1596 0.0532
H6 H -0.3331 0.1741 0.0960
C2 C -0.2763 0.0957 0.1175
O4 O -0.2356 0.0734 0.1423
O5 O -0.3397 0.0708 0.1450
C11 C -0.1853 0.1854 0.0
H12 H -0.1571 0.1572 0.0
C1 C -0.1956 0.2847 -0.0524
C3 C -0.1596 0.2481 -0.0532
H6 H -0.1741 0.3331 -0.0960
C2 C -0.0957 0.2763 -0.1175
O4 O -0.0734 0.2356 -0.1423
O5 O -0.0708 0.3397 -0.1450
C1 C -0.2847 0.5197 -0.0524
C3 C -0.2481 0.5923 -0.0532
H6 H -0.3331 0.4928 -0.0960
C2 C -0.2763 0.6280 -0.1175
O4 O -0.2356 0.6910 -0.1423
O5 O -0.3397 0.5895 -0.1450
C1 C -0.5197 0.1956 -0.0524
C3 C -0.5923 0.1596 -0.0532
H6 H -0.4928 0.1741 -0.0960
C2 C -0.6280 0.0957 -0.1175
O4 O -0.6910 0.0734 -0.1423
O5 O -0.5895 0.0708 -0.1450
O4 O 0.7644 1.0734 0.3577
O4 O -0.0734 0.6910 0.3577
O4 O 0.3090 0.2356 0.3577
O4 O 0.2356 0.3090 0.3577
O4 O 0.6910 0.9266 0.3577
O4 O 0.0734 0.7644 0.3577
O4 O 0.3090 0.2356 0.1423
O4 O 0.7644 1.0734 0.1423
O5 O 0.6603 1.0708 0.3550
O5 O -0.0708 0.5895 0.3550
O5 O 0.4105 0.3397 0.3550
O5 O 0.3397 0.4105 0.3550
O5 O 0.5895 0.9292 0.3550
O5 O 0.0708 0.6603 0.3550
O5 O 0.4105 0.3397 0.1450
O5 O 0.6603 1.0708 0.1450
Cu7 Cu -0.6209 0.3791 0.25
Cu7 Cu 0.0000 0.3791 -0.25
Cu7 Cu -0.3791 0.0000 0.25
Cu7 Cu -0.3791 0.6209 -0.25
Cu7 Cu 0.6209 0.6209 -0.25
Cu7 Cu -0.6209 0.0000 -0.25
Cu7 Cu 0.3791 1.0000 -0.25
Cu8 Cu -0.7313 0.2687 0.25
Cu8 Cu 0.0000 0.2687 -0.25
Cu8 Cu -0.2687 0.0000 0.25
Cu8 Cu -0.2687 0.7313 -0.25
Cu8 Cu 0.7313 0.7313 -0.25
Cu8 Cu -0.7313 0.0000 -0.25
Cu8 Cu 0.2687 1.0000 -0.25
C1 C 0.7153 0.1956 0.4476
C2 C 0.7237 0.0957 0.3825
C3 C 0.7519 0.1596 0.4468
O4 O 0.7644 0.0734 0.3577
O5 O 0.6603 0.0708 0.3550
H6 H 0.6669 0.1741 0.4040
Cu7 Cu 1.0000 0.3791 0.75
Cu8 Cu 1.0000 0.2687 0.75
C9 C 0.7031 0.2969 0.5
C10 C 0.7413 0.2588 0.5
C11 C 0.8147 0.1854 0.5
H12 H 0.8429 0.1572 0.5
C13 C 0.7388 0.3694 0.5
H14 H 0.7954 0.3977 0.5
C9 C 0.7031 0.4062 0.5
C10 C 0.7412 0.4825 0.5
C13 C 0.6306 0.3694 0.5
H14 H 0.6023 0.3977 0.5
C1 C 0.8044 0.5197 0.4476
C3 C 0.8404 0.5923 0.4468
H6 H 0.8259 0.4928 0.4040
C2 C 0.9043 0.6280 0.3825
O4 O 0.9266 0.6910 0.3577
O5 O 0.9292 0.5895 0.3550
C11 C 0.8146 0.6293 0.5
H12 H 0.8428 0.6857 0.5
C9 C 0.5938 0.2969 0.5
C10 C 0.5175 0.2587 0.5
C13 C 0.6306 0.2612 0.5
H14 H 0.6023 0.2046 0.5
C1 C 0.4803 0.2847 0.4476
C3 C 0.4077 0.2481 0.4468
H6 H 0.5072 0.3331 0.4040
C2 C 0.3720 0.2763 0.3825
C11 C 0.3707 0.1853 0.5
H12 H 0.3143 0.1571 0.5
C1 C 0.4803 0.1956 0.5524
C3 C 0.4077 0.1596 0.5532
H6 H 0.5072 0.1741 0.5960
C2 C 0.3720 0.0957 0.6175
O4 O 0.3090 0.0734 0.6423
O5 O 0.4105 0.0708 0.6450
C1 C 0.8044 0.2847 0.5524
C3 C 0.8404 0.2481 0.5532
H6 H 0.8259 0.3331 0.5960
C2 C 0.9043 0.2763 0.6175
O4 O 0.9266 0.2356 0.6423
O5 O 0.9292 0.3397 0.6450
C1 C 0.7153 0.5197 0.5524
C3 C 0.7519 0.5923 0.5532
H6 H 0.6669 0.4928 0.5960
C2 C 0.7237 0.6280 0.6175
O4 O 0.7644 0.6910 0.6423
O5 O 0.6603 0.5895 0.6450
Cu7 Cu 0.6209 0.6209 0.75
Cu8 Cu 0.7313 0.7313 0.75
Cu7 Cu 0.3791 0.0000 0.75
Cu8 Cu 0.2687 0.0000 0.75
C1 C 0.2847 -0.1956 0.5524
C2 C 0.2763 -0.0957 0.6175
C3 C 0.2481 -0.1596 0.5532
O4 O 0.2356 -0.0734 0.6423
O5 O 0.3397 -0.0708 0.6450
H6 H 0.3331 -0.1741 0.5960
C9 C 0.2969 -0.2969 0.5
C10 C 0.2587 -0.2588 0.5
C11 C 0.1853 -0.1854 0.5
H12 H 0.1571 -0.1572 0.5
C13 C 0.2612 -0.3694 0.5
H14 H 0.2046 -0.3977 0.5
C9 C 0.2969 -0.4062 0.5
C10 C 0.2588 -0.4825 0.5
C13 C 0.3694 -0.3694 0.5
H14 H 0.3977 -0.3977 0.5
C1 C 0.1956 -0.5197 0.5524
C3 C 0.1596 -0.5923 0.5532
H6 H 0.1741 -0.4928 0.5960
C2 C 0.0957 -0.6280 0.6175
O4 O 0.0734 -0.6910 0.6423
O5 O 0.0708 -0.5895 0.6450
C11 C 0.1854 -0.6293 0.5
H12 H 0.1572 -0.6857 0.5
C9 C 0.4062 -0.2969 0.5
C10 C 0.4825 -0.2587 0.5
C13 C 0.3694 -0.2612 0.5
H14 H 0.3977 -0.2046 0.5
C1 C 0.5197 -0.2847 0.5524
C3 C 0.5923 -0.2481 0.5532
H6 H 0.4928 -0.3331 0.5960
C2 C 0.6280 -0.2763 0.6175
O4 O 0.6910 -0.2356 0.6423
O5 O 0.5895 -0.3397 0.6450
C11 C 0.6293 -0.1853 0.5
H12 H 0.6857 -0.1571 0.5
C1 C 0.5197 -0.1956 0.4476
C3 C 0.5923 -0.1596 0.4468
H6 H 0.4928 -0.1741 0.4040
C2 C 0.6280 -0.0957 0.3825
O4 O 0.6910 -0.0734 0.3577
O5 O 0.5895 -0.0708 0.3550
C1 C 0.1956 -0.2847 0.4476
C3 C 0.1596 -0.2481 0.4468
H6 H 0.1741 -0.3331 0.4040
C2 C 0.0957 -0.2763 0.3825
O4 O 0.0734 -0.2356 0.3577
O5 O 0.0708 -0.3397 0.3550
C1 C 0.2847 -0.5197 0.4476
C3 C 0.2481 -0.5923 0.4468
H6 H 0.3331 -0.4928 0.4040
C2 C 0.2763 -0.6280 0.3825
O4 O 0.2356 -0.6910 0.3577
O5 O 0.3397 -0.5895 0.3550
O4 O 0.6910 0.7644 0.8577
O4 O 0.2356 -0.0734 0.8577
O4 O 1.0734 0.3090 0.8577
O4 O 0.9266 0.2356 0.8577
O4 O 0.7644 0.6910 0.8577
O4 O 0.3090 0.0734 0.8577
O4 O 1.0734 0.3090 0.6423
O4 O 0.6910 0.7644 0.6423
O5 O 0.5895 0.6603 0.8550
O5 O 0.3397 -0.0708 0.8550
O5 O 1.0708 0.4105 0.8550
O5 O 0.9292 0.3397 0.8550
O5 O 0.6603 0.5895 0.8550
O5 O 0.4105 0.0708 0.8550
O5 O 1.0708 0.4105 0.6450
O5 O 0.5895 0.6603 0.6450
Cu7 Cu 0.0000 -0.6209 0.75
Cu7 Cu 0.6209 0.0000 0.25
Cu7 Cu 0.6209 -0.3791 0.75
Cu7 Cu 0.0000 -0.3791 0.25
Cu7 Cu 1.0000 0.6209 0.25
Cu7 Cu 0.3791 -0.6209 0.25
Cu8 Cu 0.0000 -0.7313 0.75
Cu8 Cu 0.7313 0.0000 0.25
Cu8 Cu 0.7313 -0.2687 0.75
Cu8 Cu 0.0000 -0.2687 0.25
Cu8 Cu 1.0000 0.7313 0.25
Cu8 Cu 0.2687 -0.7313 0.25
C1 C 0.4803 0.2847 0.0524
C2 C 0.3720 0.2763 0.1175
C3 C 0.4077 0.2481 0.0532
H6 H 0.5072 0.3331 0.0960
C9 C 0.5938 0.2969 0.0
C10 C 0.5175 0.2587 0.0
C11 C 0.3707 0.1853 0.0
H12 H 0.3143 0.1571 0.0
C13 C 0.6306 0.2612 0.0
H14 H 0.6023 0.2046 0.0
C9 C 0.7031 0.2969 0.0
C10 C 0.7413 0.2588 0.0
C13 C 0.7388 0.3694 0.0
H14 H 0.7954 0.3977 0.0
C1 C 0.7153 0.1956 0.0524
C3 C 0.7519 0.1596 0.0532
H6 H 0.6669 0.1741 0.0960
C2 C 0.7237 0.0957 0.1175
O4 O 0.7644 0.0734 0.1423
O5 O 0.6603 0.0708 0.1450
C11 C 0.8147 0.1854 0.0
H12 H 0.8429 0.1572 0.0
C9 C 0.7031 0.4062 0.0
C10 C 0.7412 0.4825 0.0
C13 C 0.6306 0.3694 0.0
H14 H 0.6023 0.3977 0.0
C1 C 0.8044 0.5197 0.0524
C3 C 0.8404 0.5923 0.0532
H6 H 0.8259 0.4928 0.0960
C2 C 0.9043 0.6280 0.1175
O4 O 0.9266 0.6910 0.1423
O5 O 0.9292 0.5895 0.1450
C11 C 0.8146 0.6293 0.0
H12 H 0.8428 0.6857 0.0
C1 C 0.7153 0.5197 -0.0524
C3 C 0.7519 0.5923 -0.0532
H6 H 0.6669 0.4928 -0.0960
C2 C 0.7237 0.6280 -0.1175
O4 O 0.7644 0.6910 -0.1423
O5 O 0.6603 0.5895 -0.1450
C1 C 0.4803 0.1956 -0.0524
C3 C 0.4077 0.1596 -0.0532
H6 H 0.5072 0.1741 -0.0960
C2 C 0.3720 0.0957 -0.1175
O4 O 0.3090 0.0734 -0.1423
O5 O 0.4105 0.0708 -0.1450
C1 C 0.8044 0.2847 -0.0524
C3 C 0.8404 0.2481 -0.0532
H6 H 0.8259 0.3331 -0.0960
C2 C 0.9043 0.2763 -0.1175
O4 O 0.9266 0.2356 -0.1423
O5 O 0.9292 0.3397 -0.1450
Cu7 Cu 0.3791 0.0000 -0.25
Cu7 Cu 1.0000 0.3791 -0.25
Cu8 Cu 0.2687 0.0000 -0.25
Cu8 Cu 1.0000 0.2687 -0.25
C1 C 1.1956 0.4803 0.5524
C2 C 1.0957 0.3720 0.6175
C3 C 1.1596 0.4077 0.5532
H6 H 1.1741 0.5072 0.5960
C9 C 1.2969 0.5938 0.5
C10 C 1.2588 0.5175 0.5
C11 C 1.1854 0.3707 0.5
H12 H 1.1572 0.3143 0.5
C13 C 1.3694 0.6306 0.5
H14 H 1.3977 0.6023 0.5
C9 C 1.4062 0.7031 0.5
C10 C 1.4825 0.7413 0.5
C13 C 1.3694 0.7388 0.5
H14 H 1.3977 0.7954 0.5
C1 C 1.5197 0.7153 0.5524
C3 C 1.5923 0.7519 0.5532
H6 H 1.4928 0.6669 0.5960
C2 C 1.6280 0.7237 0.6175
O4 O 1.6910 0.7644 0.6423
O5 O 1.5895 0.6603 0.6450
C11 C 1.6293 0.8147 0.5
H12 H 1.6857 0.8429 0.5
C9 C 1.2969 0.7031 0.5
C10 C 1.2587 0.7412 0.5
C13 C 1.2612 0.6306 0.5
H14 H 1.2046 0.6023 0.5
C1 C 1.2847 0.8044 0.5524
C3 C 1.2481 0.8404 0.5532
H6 H 1.3331 0.8259 0.5960
C2 C 1.2763 0.9043 0.6175
O4 O 1.2356 0.9266 0.6423
O5 O 1.3397 0.9292 0.6450
C11 C 1.1853 0.8146 0.5
H12 H 1.1571 0.8428 0.5
C1 C 1.1956 0.7153 0.4476
C3 C 1.1596 0.7519 0.4468
H6 H 1.1741 0.6669 0.4040
C2 C 1.0957 0.7237 0.3825
O4 O 1.0734 0.7644 0.3577
O5 O 1.0708 0.6603 0.3550
C1 C 1.2847 0.4803 0.4476
C3 C 1.2481 0.4077 0.4468
H6 H 1.3331 0.5072 0.4040
C2 C 1.2763 0.3720 0.3825
O4 O 1.2356 0.3090 0.3577
O5 O 1.3397 0.4105 0.3550
C1 C 1.5197 0.8044 0.4476
C3 C 1.5923 0.8404 0.4468
H6 H 1.4928 0.8259 0.4040
C2 C 1.6280 0.9043 0.3825
O4 O 1.6910 0.9266 0.3577
O5 O 1.5895 0.9292 0.3550
Cu7 Cu 1.6209 0.6209 0.75
Cu7 Cu 1.3791 1.0000 0.75
Cu7 Cu 1.3791 0.3791 0.25
Cu7 Cu 1.6209 1.0000 0.25
Cu8 Cu 1.7313 0.7313 0.75
Cu8 Cu 1.2687 1.0000 0.75
Cu8 Cu 1.2687 0.2687 0.25
Cu8 Cu 1.7313 1.0000 0.25
C1 C 0.7153 1.1956 0.0524
C2 C 0.7237 1.0957 0.1175
C3 C 0.7519 1.1596 0.0532
H6 H 0.6669 1.1741 0.0960
C9 C 0.7031 1.2969 0.0
C10 C 0.7413 1.2588 0.0
C11 C 0.8147 1.1854 0.0
H12 H 0.8429 1.1572 0.0
C13 C 0.7388 1.3694 0.0
H14 H 0.7954 1.3977 0.0
C9 C 0.7031 1.4062 0.0
C10 C 0.7412 1.4825 0.0
C13 C 0.6306 1.3694 0.0
H14 H 0.6023 1.3977 0.0
C1 C 0.8044 1.5197 0.0524
C3 C 0.8404 1.5923 0.0532
H6 H 0.8259 1.4928 0.0960
C2 C 0.9043 1.6280 0.1175
O4 O 0.9266 1.6910 0.1423
O5 O 0.9292 1.5895 0.1450
C11 C 0.8146 1.6293 0.0
H12 H 0.8428 1.6857 0.0
C9 C 0.5938 1.2969 0.0
C10 C 0.5175 1.2587 0.0
C13 C 0.6306 1.2612 0.0
H14 H 0.6023 1.2046 0.0
C1 C 0.4803 1.2847 0.0524
C3 C 0.4077 1.2481 0.0532
H6 H 0.5072 1.3331 0.0960
C2 C 0.3720 1.2763 0.1175
O4 O 0.3090 1.2356 0.1423
O5 O 0.4105 1.3397 0.1450
C11 C 0.3707 1.1853 0.0
H12 H 0.3143 1.1571 0.0
C1 C 0.4803 1.1956 -0.0524
C3 C 0.4077 1.1596 -0.0532
H6 H 0.5072 1.1741 -0.0960
C2 C 0.3720 1.0957 -0.1175
O4 O 0.3090 1.0734 -0.1423
O5 O 0.4105 1.0708 -0.1450
C1 C 0.8044 1.2847 -0.0524
C3 C 0.8404 1.2481 -0.0532
H6 H 0.8259 1.3331 -0.0960
C2 C 0.9043 1.2763 -0.1175
O4 O 0.9266 1.2356 -0.1423
O5 O 0.9292 1.3397 -0.1450
C1 C 0.7153 1.5197 -0.0524
C3 C 0.7519 1.5923 -0.0532
H6 H 0.6669 1.4928 -0.0960
C2 C 0.7237 1.6280 -0.1175
O4 O 0.7644 1.6910 -0.1423
O5 O 0.6603 1.5895 -0.1450
Cu7 Cu 1.0000 1.6209 0.25
Cu7 Cu 0.3791 1.3791 0.25
Cu7 Cu 1.0000 1.3791 -0.25
Cu7 Cu 0.6209 1.6209 -0.25
Cu8 Cu 1.0000 1.7313 0.25
Cu8 Cu 0.2687 1.2687 0.25
Cu8 Cu 1.0000 1.2687 -0.25
Cu8 Cu 0.7313 1.7313 -0.25
C1 C 0.5197 0.7153 0.5524
C2 C 0.6280 0.7237 0.6175
C3 C 0.5923 0.7519 0.5532
H6 H 0.4928 0.6669 0.5960
C9 C 0.4062 0.7031 0.5
C10 C 0.4825 0.7413 0.5
C11 C 0.6293 0.8147 0.5
H12 H 0.6857 0.8429 0.5
C13 C 0.3694 0.7388 0.5
H14 H 0.3977 0.7954 0.5
C9 C 0.2969 0.7031 0.5
C10 C 0.2587 0.7412 0.5
C13 C 0.2612 0.6306 0.5
H14 H 0.2046 0.6023 0.5
C1 C 0.2847 0.8044 0.5524
C3 C 0.2481 0.8404 0.5532
H6 H 0.3331 0.8259 0.5960
C2 C 0.2763 0.9043 0.6175
O4 O 0.2356 0.9266 0.6423
O5 O 0.3397 0.9292 0.6450
C11 C 0.1853 0.8146 0.5
H12 H 0.1571 0.8428 0.5
C9 C 0.2969 0.5938 0.5
C10 C 0.2588 0.5175 0.5
C13 C 0.3694 0.6306 0.5
H14 H 0.3977 0.6023 0.5
C1 C 0.1956 0.4803 0.5524
C3 C 0.1596 0.4077 0.5532
H6 H 0.1741 0.5072 0.5960
C2 C 0.0957 0.3720 0.6175
O4 O 0.0734 0.3090 0.6423
O5 O 0.0708 0.4105 0.6450
C11 C 0.1854 0.3707 0.5
H12 H 0.1572 0.3143 0.5
C1 C 0.2847 0.4803 0.4476
C3 C 0.2481 0.4077 0.4468
H6 H 0.3331 0.5072 0.4040
C2 C 0.2763 0.3720 0.3825
C1 C 0.5197 0.8044 0.4476
C3 C 0.5923 0.8404 0.4468
H6 H 0.4928 0.8259 0.4040
C2 C 0.6280 0.9043 0.3825
C1 C 0.1956 0.7153 0.4476
C3 C 0.1596 0.7519 0.4468
H6 H 0.1741 0.6669 0.4040
C2 C 0.0957 0.7237 0.3825
Cu7 Cu 0.3791 1.0000 0.75
Cu7 Cu 0.0000 0.3791 0.75
Cu8 Cu 0.2687 1.0000 0.75
Cu8 Cu 0.0000 0.2687 0.75
O4 O 0.3090 1.0734 0.8577
O4 O -0.0734 0.2356 0.8577
O4 O 0.0734 0.3090 0.8577
O4 O 0.2356 0.9266 0.8577
O4 O -0.0734 0.2356 0.6423
O4 O 0.3090 1.0734 0.6423
O5 O 0.4105 1.0708 0.8550
O5 O -0.0708 0.3397 0.8550
O5 O 0.0708 0.4105 0.8550
O5 O 0.3397 0.9292 0.8550
O5 O -0.0708 0.3397 0.6450
O5 O 0.4105 1.0708 0.6450
C1 C 1.1956 0.7153 0.0524
C2 C 1.0957 0.7237 0.1175
C3 C 1.1596 0.7519 0.0532
O4 O 1.0734 0.7644 0.1423
O5 O 1.0708 0.6603 0.1450
H6 H 1.1741 0.6669 0.0960
C9 C 1.2969 0.7031 0.0
C10 C 1.2588 0.7413 0.0
C11 C 1.1854 0.8147 0.0
H12 H 1.1572 0.8429 0.0
C13 C 1.3694 0.7388 0.0
H14 H 1.3977 0.7954 0.0
C9 C 1.4062 0.7031 0.0
C10 C 1.4825 0.7412 0.0
C13 C 1.3694 0.6306 0.0
H14 H 1.3977 0.6023 0.0
C1 C 1.5197 0.8044 0.0524
C3 C 1.5923 0.8404 0.0532
H6 H 1.4928 0.8259 0.0960
C2 C 1.6280 0.9043 0.1175
O4 O 1.6910 0.9266 0.1423
O5 O 1.5895 0.9292 0.1450
C11 C 1.6293 0.8146 0.0
H12 H 1.6857 0.8428 0.0
C9 C 1.2969 0.5938 0.0
C10 C 1.2587 0.5175 0.0
C13 C 1.2612 0.6306 0.0
H14 H 1.2046 0.6023 0.0
C1 C 1.2847 0.4803 0.0524
C3 C 1.2481 0.4077 0.0532
H6 H 1.3331 0.5072 0.0960
C2 C 1.2763 0.3720 0.1175
O4 O 1.2356 0.3090 0.1423
O5 O 1.3397 0.4105 0.1450
C11 C 1.1853 0.3707 0.0
H12 H 1.1571 0.3143 0.0
C1 C 1.1956 0.4803 -0.0524
C3 C 1.1596 0.4077 -0.0532
H6 H 1.1741 0.5072 -0.0960
C2 C 1.0957 0.3720 -0.1175
O4 O 1.0734 0.3090 -0.1423
O5 O 1.0708 0.4105 -0.1450
C1 C 1.2847 0.8044 -0.0524
C3 C 1.2481 0.8404 -0.0532
H6 H 1.3331 0.8259 -0.0960
C2 C 1.2763 0.9043 -0.1175
O4 O 1.2356 0.9266 -0.1423
O5 O 1.3397 0.9292 -0.1450
C1 C 1.5197 0.7153 -0.0524
C3 C 1.5923 0.7519 -0.0532
H6 H 1.4928 0.6669 -0.0960
C2 C 1.6280 0.7237 -0.1175
O4 O 1.6910 0.7644 -0.1423
O5 O 1.5895 0.6603 -0.1450
O4 O 0.6910 -0.0734 0.1423
O5 O 0.5895 -0.0708 0.1450
Cu7 Cu 1.3791 1.0000 -0.25
Cu7 Cu 1.6209 0.6209 -0.25
Cu8 Cu 1.2687 1.0000 -0.25
Cu8 Cu 1.7313 0.7313 -0.25
C1 C 0.4803 1.1956 0.5524
C2 C 0.3720 1.0957 0.6175
C3 C 0.4077 1.1596 0.5532
H6 H 0.5072 1.1741 0.5960
C9 C 0.5938 1.2969 0.5
C10 C 0.5175 1.2588 0.5
C11 C 0.3707 1.1854 0.5
H12 H 0.3143 1.1572 0.5
C13 C 0.6306 1.3694 0.5
H14 H 0.6023 1.3977 0.5
C9 C 0.7031 1.4062 0.5
C10 C 0.7413 1.4825 0.5
C13 C 0.7388 1.3694 0.5
H14 H 0.7954 1.3977 0.5
C1 C 0.7153 1.5197 0.5524
C3 C 0.7519 1.5923 0.5532
H6 H 0.6669 1.4928 0.5960
C2 C 0.7237 1.6280 0.6175
O4 O 0.7644 1.6910 0.6423
O5 O 0.6603 1.5895 0.6450
C11 C 0.8147 1.6293 0.5
H12 H 0.8429 1.6857 0.5
C9 C 0.7031 1.2969 0.5
C10 C 0.7412 1.2587 0.5
C13 C 0.6306 1.2612 0.5
H14 H 0.6023 1.2046 0.5
C1 C 0.8044 1.2847 0.5524
C3 C 0.8404 1.2481 0.5532
H6 H 0.8259 1.3331 0.5960
C2 C 0.9043 1.2763 0.6175
O4 O 0.9266 1.2356 0.6423
O5 O 0.9292 1.3397 0.6450
C11 C 0.8146 1.1853 0.5
H12 H 0.8428 1.1571 0.5
C1 C 0.7153 1.1956 0.4476
C3 C 0.7519 1.1596 0.4468
H6 H 0.6669 1.1741 0.4040
C2 C 0.7237 1.0957 0.3825
C1 C 0.4803 1.2847 0.4476
C3 C 0.4077 1.2481 0.4468
H6 H 0.5072 1.3331 0.4040
C2 C 0.3720 1.2763 0.3825
O4 O 0.3090 1.2356 0.3577
O5 O 0.4105 1.3397 0.3550
C1 C 0.8044 1.5197 0.4476
C3 C 0.8404 1.5923 0.4468
H6 H 0.8259 1.4928 0.4040
C2 C 0.9043 1.6280 0.3825
O4 O 0.9266 1.6910 0.3577
O5 O 0.9292 1.5895 0.3550
Cu7 Cu 0.6209 1.6209 0.75
Cu7 Cu 1.0000 1.3791 0.75
Cu8 Cu 0.7313 1.7313 0.75
Cu8 Cu 1.0000 1.2687 0.75
C1 C -0.1956 0.2847 0.5524
C2 C -0.0957 0.2763 0.6175
C3 C -0.1596 0.2481 0.5532
H6 H -0.1741 0.3331 0.5960
C9 C -0.2969 0.2969 0.5
C10 C -0.2588 0.2587 0.5
C11 C -0.1854 0.1853 0.5
H12 H -0.1572 0.1571 0.5
C13 C -0.3694 0.2612 0.5
H14 H -0.3977 0.2046 0.5
C9 C -0.4062 0.2969 0.5
C10 C -0.4825 0.2588 0.5
C13 C -0.3694 0.3694 0.5
H14 H -0.3977 0.3977 0.5
C1 C -0.5197 0.1956 0.5524
C3 C -0.5923 0.1596 0.5532
H6 H -0.4928 0.1741 0.5960
C2 C -0.6280 0.0957 0.6175
O4 O -0.6910 0.0734 0.6423
O5 O -0.5895 0.0708 0.6450
C11 C -0.6293 0.1854 0.5
H12 H -0.6857 0.1572 0.5
C9 C -0.2969 0.4062 0.5
C10 C -0.2587 0.4825 0.5
C13 C -0.2612 0.3694 0.5
H14 H -0.2046 0.3977 0.5
C1 C -0.2847 0.5197 0.5524
C3 C -0.2481 0.5923 0.5532
H6 H -0.3331 0.4928 0.5960
C2 C -0.2763 0.6280 0.6175
O4 O -0.2356 0.6910 0.6423
O5 O -0.3397 0.5895 0.6450
C11 C -0.1853 0.6293 0.5
H12 H -0.1571 0.6857 0.5
C1 C -0.1956 0.5197 0.4476
C3 C -0.1596 0.5923 0.4468
H6 H -0.1741 0.4928 0.4040
C2 C -0.0957 0.6280 0.3825
C1 C -0.2847 0.1956 0.4476
C3 C -0.2481 0.1596 0.4468
H6 H -0.3331 0.1741 0.4040
C2 C -0.2763 0.0957 0.3825
O4 O -0.2356 0.0734 0.3577
O5 O -0.3397 0.0708 0.3550
C1 C -0.5197 0.2847 0.4476
C3 C -0.5923 0.2481 0.4468
H6 H -0.4928 0.3331 0.4040
C2 C -0.6280 0.2763 0.3825
O4 O -0.6910 0.2356 0.3577
O5 O -0.5895 0.3397 0.3550
Cu7 Cu -0.6209 0.0000 0.75
Cu7 Cu -0.3791 0.6209 0.75
Cu8 Cu -0.7313 0.0000 0.75
Cu8 Cu -0.2687 0.7313 0.75
C1 C 0.5197 -0.1956 0.0524
C2 C 0.6280 -0.0957 0.1175
C3 C 0.5923 -0.1596 0.0532
H6 H 0.4928 -0.1741 0.0960
C9 C 0.4062 -0.2969 0.0
C10 C 0.4825 -0.2588 0.0
C11 C 0.6293 -0.1854 0.0
H12 H 0.6857 -0.1572 0.0
C13 C 0.3694 -0.3694 0.0
H14 H 0.3977 -0.3977 0.0
C9 C 0.2969 -0.4062 0.0
C10 C 0.2587 -0.4825 0.0
C13 C 0.2612 -0.3694 0.0
H14 H 0.2046 -0.3977 0.0
C1 C 0.2847 -0.5197 0.0524
C3 C 0.2481 -0.5923 0.0532
H6 H 0.3331 -0.4928 0.0960
C2 C 0.2763 -0.6280 0.1175
O4 O 0.2356 -0.6910 0.1423
O5 O 0.3397 -0.5895 0.1450
C11 C 0.1853 -0.6293 0.0
H12 H 0.1571 -0.6857 0.0
C9 C 0.2969 -0.2969 0.0
C10 C 0.2588 -0.2587 0.0
C13 C 0.3694 -0.2612 0.0
H14 H 0.3977 -0.2046 0.0
C1 C 0.1956 -0.2847 0.0524
C3 C 0.1596 -0.2481 0.0532
H6 H 0.1741 -0.3331 0.0960
C2 C 0.0957 -0.2763 0.1175
O4 O 0.0734 -0.2356 0.1423
O5 O 0.0708 -0.3397 0.1450
C11 C 0.1854 -0.1853 0.0
H12 H 0.1572 -0.1571 0.0
C1 C 0.2847 -0.1956 -0.0524
C3 C 0.2481 -0.1596 -0.0532
H6 H 0.3331 -0.1741 -0.0960
C2 C 0.2763 -0.0957 -0.1175
O4 O 0.2356 -0.0734 -0.1423
O5 O 0.3397 -0.0708 -0.1450
C1 C 0.5197 -0.2847 -0.0524
C3 C 0.5923 -0.2481 -0.0532
H6 H 0.4928 -0.3331 -0.0960
C2 C 0.6280 -0.2763 -0.1175
O4 O 0.6910 -0.2356 -0.1423
O5 O 0.5895 -0.3397 -0.1450
C1 C 0.1956 -0.5197 -0.0524
C3 C 0.1596 -0.5923 -0.0532
H6 H 0.1741 -0.4928 -0.0960
C2 C 0.0957 -0.6280 -0.1175
O4 O 0.0734 -0.6910 -0.1423
O5 O 0.0708 -0.5895 -0.1450
Cu7 Cu 0.6209 -0.3791 -0.25
Cu7 Cu 0.0000 -0.6209 -0.25
Cu8 Cu 0.7313 -0.2687 -0.25
Cu8 Cu 0.0000 -0.7313 -0.25
C1 C 0.8044 0.5197 1.0524
C2 C 0.9043 0.6280 1.1175
C3 C 0.8404 0.5923 1.0532
O4 O 0.9266 0.6910 1.1423
O5 O 0.9292 0.5895 1.1450
H6 H 0.8259 0.4928 1.0960
C9 C 0.7031 0.4062 1.0
C10 C 0.7412 0.4825 1.0
C11 C 0.8146 0.6293 1.0
H12 H 0.8428 0.6857 1.0
C13 C 0.6306 0.3694 1.0
H14 H 0.6023 0.3977 1.0
C9 C 0.5938 0.2969 1.0
C10 C 0.5175 0.2587 1.0
C13 C 0.6306 0.2612 1.0
H14 H 0.6023 0.2046 1.0
C1 C 0.4803 0.2847 1.0524
C3 C 0.4077 0.2481 1.0532
H6 H 0.5072 0.3331 1.0960
C2 C 0.3720 0.2763 1.1175
O4 O 0.3090 0.2356 1.1423
O5 O 0.4105 0.3397 1.1450
C11 C 0.3707 0.1853 1.0
H12 H 0.3143 0.1571 1.0
C9 C 0.7031 0.2969 1.0
C10 C 0.7413 0.2588 1.0
C13 C 0.7388 0.3694 1.0
H14 H 0.7954 0.3977 1.0
C1 C 0.7153 0.1956 1.0524
C3 C 0.7519 0.1596 1.0532
H6 H 0.6669 0.1741 1.0960
C2 C 0.7237 0.0957 1.1175
O4 O 0.7644 0.0734 1.1423
O5 O 0.6603 0.0708 1.1450
C11 C 0.8147 0.1854 1.0
H12 H 0.8429 0.1572 1.0
C1 C 0.8044 0.2847 0.9476
C3 C 0.8404 0.2481 0.9468
H6 H 0.8259 0.3331 0.9040
C2 C 0.9043 0.2763 0.8825
C1 C 0.7153 0.5197 0.9476
C3 C 0.7519 0.5923 0.9468
H6 H 0.6669 0.4928 0.9040
C2 C 0.7237 0.6280 0.8825
C1 C 0.4803 0.1956 0.9476
C3 C 0.4077 0.1596 0.9468
H6 H 0.5072 0.1741 0.9040
C2 C 0.3720 0.0957 0.8825
C1 C 1.1956 0.4803 0.9476
C2 C 1.0957 0.3720 0.8825
C3 C 1.1596 0.4077 0.9468
H6 H 1.1741 0.5072 0.9040
C9 C 1.2969 0.5938 1.0
C10 C 1.2588 0.5175 1.0
C11 C 1.1854 0.3707 1.0
H12 H 1.1572 0.3143 1.0
C13 C 1.3694 0.6306 1.0
H14 H 1.3977 0.6023 1.0
C9 C 1.4062 0.7031 1.0
C10 C 1.4825 0.7413 1.0
C13 C 1.3694 0.7388 1.0
H14 H 1.3977 0.7954 1.0
C1 C 1.5197 0.7153 0.9476
C3 C 1.5923 0.7519 0.9468
H6 H 1.4928 0.6669 0.9040
C2 C 1.6280 0.7237 0.8825
O4 O 1.6910 0.7644 0.8577
O5 O 1.5895 0.6603 0.8550
C11 C 1.6293 0.8147 1.0
H12 H 1.6857 0.8429 1.0
C9 C 1.2969 0.7031 1.0
C10 C 1.2587 0.7412 1.0
C13 C 1.2612 0.6306 1.0
H14 H 1.2046 0.6023 1.0
C1 C 1.2847 0.8044 0.9476
C3 C 1.2481 0.8404 0.9468
H6 H 1.3331 0.8259 0.9040
C2 C 1.2763 0.9043 0.8825
O4 O 1.2356 0.9266 0.8577
O5 O 1.3397 0.9292 0.8550
C11 C 1.1853 0.8146 1.0
H12 H 1.1571 0.8428 1.0
C1 C 1.1956 0.7153 1.0524
C3 C 1.1596 0.7519 1.0532
H6 H 1.1741 0.6669 1.0960
C2 C 1.0957 0.7237 1.1175
O4 O 1.0734 0.7644 1.1423
O5 O 1.0708 0.6603 1.1450
C1 C 1.2847 0.4803 1.0524
C3 C 1.2481 0.4077 1.0532
H6 H 1.3331 0.5072 1.0960
C2 C 1.2763 0.3720 1.1175
O4 O 1.2356 0.3090 1.1423
O5 O 1.3397 0.4105 1.1450
C1 C 1.5197 0.8044 1.0524
C3 C 1.5923 0.8404 1.0532
H6 H 1.4928 0.8259 1.0960
C2 C 1.6280 0.9043 1.1175
O4 O 1.6910 0.9266 1.1423
O5 O 1.5895 0.9292 1.1450
Cu7 Cu 1.0000 0.6209 1.25
Cu7 Cu 1.3791 0.3791 1.25
Cu7 Cu 0.3791 0.3791 1.25
Cu7 Cu 1.6209 1.0000 1.25
Cu7 Cu 0.6209 0.0000 1.25
Cu8 Cu 1.0000 0.7313 1.25
Cu8 Cu 1.2687 0.2687 1.25
Cu8 Cu 0.2687 0.2687 1.25
Cu8 Cu 1.7313 1.0000 1.25
Cu8 Cu 0.7313 0.0000 1.25
C1 C 0.5197 0.7153 0.9476
C2 C 0.6280 0.7237 0.8825
C3 C 0.5923 0.7519 0.9468
H6 H 0.4928 0.6669 0.9040
C9 C 0.4062 0.7031 1.0
C10 C 0.4825 0.7413 1.0
C11 C 0.6293 0.8147 1.0
H12 H 0.6857 0.8429 1.0
C13 C 0.3694 0.7388 1.0
H14 H 0.3977 0.7954 1.0
C9 C 0.2969 0.7031 1.0
C10 C 0.2587 0.7412 1.0
C13 C 0.2612 0.6306 1.0
H14 H 0.2046 0.6023 1.0
C1 C 0.2847 0.8044 0.9476
C3 C 0.2481 0.8404 0.9468
H6 H 0.3331 0.8259 0.9040
C2 C 0.2763 0.9043 0.8825
C11 C 0.1853 0.8146 1.0
H12 H 0.1571 0.8428 1.0
C9 C 0.2969 0.5938 1.0
C10 C 0.2588 0.5175 1.0
C13 C 0.3694 0.6306 1.0
H14 H 0.3977 0.6023 1.0
C1 C 0.1956 0.4803 0.9476
C3 C 0.1596 0.4077 0.9468
H6 H 0.1741 0.5072 0.9040
C2 C 0.0957 0.3720 0.8825
C11 C 0.1854 0.3707 1.0
H12 H 0.1572 0.3143 1.0
C1 C 0.2847 0.4803 1.0524
C3 C 0.2481 0.4077 1.0532
H6 H 0.3331 0.5072 1.0960
C2 C 0.2763 0.3720 1.1175
O4 O 0.2356 0.3090 1.1423
O5 O 0.3397 0.4105 1.1450
C1 C 0.5197 0.8044 1.0524
C3 C 0.5923 0.8404 1.0532
H6 H 0.4928 0.8259 1.0960
C2 C 0.6280 0.9043 1.1175
O4 O 0.6910 0.9266 1.1423
O5 O 0.5895 0.9292 1.1450
C1 C 0.1956 0.7153 1.0524
C3 C 0.1596 0.7519 1.0532
H6 H 0.1741 0.6669 1.0960
C2 C 0.0957 0.7237 1.1175
O4 O 0.0734 0.7644 1.1423
O5 O 0.0708 0.6603 1.1450
Cu7 Cu 0.6209 1.0000 1.25
Cu7 Cu 0.0000 0.6209 1.25
Cu8 Cu 0.7313 1.0000 1.25
Cu8 Cu 0.0000 0.7313 1.25
C1 C 0.2847 -0.1956 0.9476
C2 C 0.2763 -0.0957 0.8825
C3 C 0.2481 -0.1596 0.9468
H6 H 0.3331 -0.1741 0.9040
C9 C 0.2969 -0.2969 1.0
C10 C 0.2587 -0.2588 1.0
C11 C 0.1853 -0.1854 1.0
H12 H 0.1571 -0.1572 1.0
C13 C 0.2612 -0.3694 1.0
H14 H 0.2046 -0.3977 1.0
C9 C 0.2969 -0.4062 1.0
C10 C 0.2588 -0.4825 1.0
C13 C 0.3694 -0.3694 1.0
H14 H 0.3977 -0.3977 1.0
C1 C 0.1956 -0.5197 0.9476
C3 C 0.1596 -0.5923 0.9468
H6 H 0.1741 -0.4928 0.9040
C2 C 0.0957 -0.6280 0.8825
O4 O 0.0734 -0.6910 0.8577
O5 O 0.0708 -0.5895 0.8550
C11 C 0.1854 -0.6293 1.0
H12 H 0.1572 -0.6857 1.0
C9 C 0.4062 -0.2969 1.0
C10 C 0.4825 -0.2587 1.0
C13 C 0.3694 -0.2612 1.0
H14 H 0.3977 -0.2046 1.0
C1 C 0.5197 -0.2847 0.9476
C3 C 0.5923 -0.2481 0.9468
H6 H 0.4928 -0.3331 0.9040
C2 C 0.6280 -0.2763 0.8825
O4 O 0.6910 -0.2356 0.8577
O5 O 0.5895 -0.3397 0.8550
C11 C 0.6293 -0.1853 1.0
H12 H 0.6857 -0.1571 1.0
C1 C 0.5197 -0.1956 1.0524
C3 C 0.5923 -0.1596 1.0532
H6 H 0.4928 -0.1741 1.0960
C2 C 0.6280 -0.0957 1.1175
O4 O 0.6910 -0.0734 1.1423
O5 O 0.5895 -0.0708 1.1450
C1 C 0.1956 -0.2847 1.0524
C3 C 0.1596 -0.2481 1.0532
H6 H 0.1741 -0.3331 1.0960
C2 C 0.0957 -0.2763 1.1175
O4 O 0.0734 -0.2356 1.1423
O5 O 0.0708 -0.3397 1.1450
C1 C 0.2847 -0.5197 1.0524
C3 C 0.2481 -0.5923 1.0532
H6 H 0.3331 -0.4928 1.0960
C2 C 0.2763 -0.6280 1.1175
O4 O 0.2356 -0.6910 1.1423
O5 O 0.3397 -0.5895 1.1450
Cu7 Cu 0.0000 -0.3791 1.25
Cu7 Cu 0.3791 -0.6209 1.25
Cu8 Cu 0.0000 -0.2687 1.25
Cu8 Cu 0.2687 -0.7313 1.25
C1 C -0.1956 0.2847 0.9476
C2 C -0.0957 0.2763 0.8825
C3 C -0.1596 0.2481 0.9468
H6 H -0.1741 0.3331 0.9040
C9 C -0.2969 0.2969 1.0
C10 C -0.2588 0.2587 1.0
C11 C -0.1854 0.1853 1.0
H12 H -0.1572 0.1571 1.0
C13 C -0.3694 0.2612 1.0
H14 H -0.3977 0.2046 1.0
C9 C -0.4062 0.2969 1.0
C10 C -0.4825 0.2588 1.0
C13 C -0.3694 0.3694 1.0
H14 H -0.3977 0.3977 1.0
C1 C -0.5197 0.1956 0.9476
C3 C -0.5923 0.1596 0.9468
H6 H -0.4928 0.1741 0.9040
C2 C -0.6280 0.0957 0.8825
O4 O -0.6910 0.0734 0.8577
O5 O -0.5895 0.0708 0.8550
C11 C -0.6293 0.1854 1.0
H12 H -0.6857 0.1572 1.0
C9 C -0.2969 0.4062 1.0
C10 C -0.2587 0.4825 1.0
C13 C -0.2612 0.3694 1.0
H14 H -0.2046 0.3977 1.0
C1 C -0.2847 0.5197 0.9476
C3 C -0.2481 0.5923 0.9468
H6 H -0.3331 0.4928 0.9040
C2 C -0.2763 0.6280 0.8825
O4 O -0.2356 0.6910 0.8577
O5 O -0.3397 0.5895 0.8550
C11 C -0.1853 0.6293 1.0
H12 H -0.1571 0.6857 1.0
C1 C -0.1956 0.5197 1.0524
C3 C -0.1596 0.5923 1.0532
H6 H -0.1741 0.4928 1.0960
C2 C -0.0957 0.6280 1.1175
O4 O -0.0734 0.6910 1.1423
O5 O -0.0708 0.5895 1.1450
C1 C -0.2847 0.1956 1.0524
C3 C -0.2481 0.1596 1.0532
H6 H -0.3331 0.1741 1.0960
C2 C -0.2763 0.0957 1.1175
O4 O -0.2356 0.0734 1.1423
O5 O -0.3397 0.0708 1.1450
C1 C -0.5197 0.2847 1.0524
C3 C -0.5923 0.2481 1.0532
H6 H -0.4928 0.3331 1.0960
C2 C -0.6280 0.2763 1.1175
O4 O -0.6910 0.2356 1.1423
O5 O -0.5895 0.3397 1.1450
Cu7 Cu -0.3791 0.0000 1.25
Cu7 Cu -0.6209 0.3791 1.25
Cu8 Cu -0.2687 0.0000 1.25
Cu8 Cu -0.7313 0.2687 1.25
C1 C 0.4803 1.1956 0.9476
C2 C 0.3720 1.0957 0.8825
C3 C 0.4077 1.1596 0.9468
H6 H 0.5072 1.1741 0.9040
C9 C 0.5938 1.2969 1.0
C10 C 0.5175 1.2588 1.0
C11 C 0.3707 1.1854 1.0
H12 H 0.3143 1.1572 1.0
C13 C 0.6306 1.3694 1.0
H14 H 0.6023 1.3977 1.0
C9 C 0.7031 1.4062 1.0
C10 C 0.7413 1.4825 1.0
C13 C 0.7388 1.3694 1.0
H14 H 0.7954 1.3977 1.0
C1 C 0.7153 1.5197 0.9476
C3 C 0.7519 1.5923 0.9468
H6 H 0.6669 1.4928 0.9040
C2 C 0.7237 1.6280 0.8825
O4 O 0.7644 1.6910 0.8577
O5 O 0.6603 1.5895 0.8550
C11 C 0.8147 1.6293 1.0
H12 H 0.8429 1.6857 1.0
C9 C 0.7031 1.2969 1.0
C10 C 0.7412 1.2587 1.0
C13 C 0.6306 1.2612 1.0
H14 H 0.6023 1.2046 1.0
C1 C 0.8044 1.2847 0.9476
C3 C 0.8404 1.2481 0.9468
H6 H 0.8259 1.3331 0.9040
C2 C 0.9043 1.2763 0.8825
O4 O 0.9266 1.2356 0.8577
O5 O 0.9292 1.3397 0.8550
C11 C 0.8146 1.1853 1.0
H12 H 0.8428 1.1571 1.0
C1 C 0.7153 1.1956 1.0524
C3 C 0.7519 1.1596 1.0532
H6 H 0.6669 1.1741 1.0960
C2 C 0.7237 1.0957 1.1175
O4 O 0.7644 1.0734 1.1423
O5 O 0.6603 1.0708 1.1450
C1 C 0.4803 1.2847 1.0524
C3 C 0.4077 1.2481 1.0532
H6 H 0.5072 1.3331 1.0960
C2 C 0.3720 1.2763 1.1175
O4 O 0.3090 1.2356 1.1423
O5 O 0.4105 1.3397 1.1450
C1 C 0.8044 1.5197 1.0524
C3 C 0.8404 1.5923 1.0532
H6 H 0.8259 1.4928 1.0960
C2 C 0.9043 1.6280 1.1175
O4 O 0.9266 1.6910 1.1423
O5 O 0.9292 1.5895 1.1450
Cu7 Cu 0.3791 1.3791 1.25
Cu7 Cu 1.0000 1.6209 1.25
Cu8 Cu 0.2687 1.2687 1.25
Cu8 Cu 1.0000 1.7313 1.25

#END
