data_crystal

_cell_length_a    13.42730
_cell_length_b    13.42730
_cell_length_c    39.17500
_cell_angle_alpha 90.00000
_cell_angle_beta  90.00000
_cell_angle_gamma 90.00000

_space_group_name_Hall 'P 1'
_space_group_name_H-M_alt 'P 1'

loop_
_symmetry_equiv_pos_as_xyz
 'x,y,z'

loop_
_atom_site_label
_atom_site_type_symbol
_atom_site_fract_x
_atom_site_fract_y
_atom_site_fract_z
Ag         Ag      0.00000   0.50000   0.09705
Ag         Ag      0.50000   0.00000   0.90295
Ag         Ag      0.50000   0.50000   0.65295
Ag         Ag      0.00000   0.00000   0.84705
Ag         Ag      0.50000   0.00000   0.59705
Ag         Ag      0.00000   0.50000   0.40295
Ag         Ag      0.00000   0.00000   0.15295
Ag         Ag      0.50000   0.50000   0.34705
Ag         Ag      0.86153   0.38295   0.24462
Ag         Ag      0.13847   0.61705   0.24462
Ag         Ag      0.38295   0.13847   0.75538
Ag         Ag      0.61705   0.86153   0.75538
Ag         Ag      0.63847   0.38295   0.50538
Ag         Ag      0.36153   0.61705   0.50538
Ag         Ag      0.11705   0.13847   0.99462
Ag         Ag      0.88295   0.86153   0.99462
Ag         Ag      0.36153   0.88295   0.74462
Ag         Ag      0.63847   0.11705   0.74462
Ag         Ag      0.88295   0.63847   0.25538
Ag         Ag      0.11705   0.36153   0.25538
Ag         Ag      0.13847   0.88295   0.00538
Ag         Ag      0.86153   0.11705   0.00538
Ag         Ag      0.61705   0.63847   0.49462
Ag         Ag      0.38295   0.36153   0.49462
N          N       0.00000   0.50000   0.15350
N          N       0.50000   0.00000   0.84650
N          N       0.50000   0.50000   0.59650
N          N       0.00000   0.00000   0.90350
N          N       0.50000   0.00000   0.65350
N          N       0.00000   0.50000   0.34650
N          N       0.00000   0.00000   0.09650
N          N       0.50000   0.50000   0.40350
N          N       0.95160   0.51860   0.20750
N          N       0.04840   0.48140   0.20750
N          N       0.51860   0.04840   0.79250
N          N       0.48140   0.95160   0.79250
N          N       0.54840   0.51860   0.54250
N          N       0.45160   0.48140   0.54250
N          N       0.98140   0.04840   0.95750
N          N       0.01860   0.95160   0.95750
N          N       0.45160   0.01860   0.70750
N          N       0.54840   0.98140   0.70750
N          N       0.01860   0.54840   0.29250
N          N       0.98140   0.45160   0.29250
N          N       0.04840   0.01860   0.04250
N          N       0.95160   0.98140   0.04250
N          N       0.48140   0.54840   0.45750
N          N       0.51860   0.45160   0.45750
N          N       0.00670   0.63290   0.06130
N          N       0.99330   0.36710   0.06130
N          N       0.63290   0.99330   0.93870
N          N       0.36710   0.00670   0.93870
N          N       0.49330   0.63290   0.68870
N          N       0.50670   0.36710   0.68870
N          N       0.86710   0.99330   0.81130
N          N       0.13290   0.00670   0.81130
N          N       0.50670   0.13290   0.56130
N          N       0.49330   0.86710   0.56130
N          N       0.13290   0.49330   0.43870
N          N       0.86710   0.50670   0.43870
N          N       0.99330   0.13290   0.18870
N          N       0.00670   0.86710   0.18870
N          N       0.36710   0.49330   0.31130
N          N       0.63290   0.50670   0.31130
N          N       0.96180   0.74490   0.02250
N          N       0.03820   0.25510   0.02250
N          N       0.74490   0.03820   0.97750
N          N       0.25510   0.96180   0.97750
N          N       0.53820   0.74490   0.72750
N          N       0.46180   0.25510   0.72750
N          N       0.75510   0.03820   0.77250
N          N       0.24490   0.96180   0.77250
N          N       0.46180   0.24490   0.52250
N          N       0.53820   0.75510   0.52250
N          N       0.24490   0.53820   0.47750
N          N       0.75510   0.46180   0.47750
N          N       0.03820   0.24490   0.22750
N          N       0.96180   0.75510   0.22750
N          N       0.25510   0.53820   0.27250
N          N       0.74490   0.46180   0.27250
N          N       0.05890   0.76240   0.03080
N          N       0.94110   0.23760   0.03080
N          N       0.76240   0.94110   0.96920
N          N       0.23760   0.05890   0.96920
N          N       0.44110   0.76240   0.71920
N          N       0.55890   0.23760   0.71920
N          N       0.73760   0.94110   0.78080
N          N       0.26240   0.05890   0.78080
N          N       0.55890   0.26240   0.53080
N          N       0.44110   0.73760   0.53080
N          N       0.26240   0.44110   0.46920
N          N       0.73760   0.55890   0.46920
N          N       0.94110   0.26240   0.21920
N          N       0.05890   0.73760   0.21920
N          N       0.23760   0.44110   0.28080
N          N       0.76240   0.55890   0.28080
C          C       0.92890   0.52930   0.17500
C          C       0.07110   0.47070   0.17500
C          C       0.52930   0.07110   0.82500
C          C       0.47070   0.92890   0.82500
C          C       0.57110   0.52930   0.57500
C          C       0.42890   0.47070   0.57500
C          C       0.97070   0.07110   0.92500
C          C       0.02930   0.92890   0.92500
C          C       0.42890   0.02930   0.67500
C          C       0.57110   0.97070   0.67500
C          C       0.02930   0.57110   0.32500
C          C       0.97070   0.42890   0.32500
C          C       0.07110   0.02930   0.07500
C          C       0.92890   0.97070   0.07500
C          C       0.47070   0.57110   0.42500
C          C       0.52930   0.42890   0.42500
C          C       0.83180   0.57380   0.16420
C          C       0.16820   0.42620   0.16420
C          C       0.57380   0.16820   0.83580
C          C       0.42620   0.83180   0.83580
C          C       0.66820   0.57380   0.58580
C          C       0.33180   0.42620   0.58580
C          C       0.92620   0.16820   0.91420
C          C       0.07380   0.83180   0.91420
C          C       0.33180   0.07380   0.66420
C          C       0.66820   0.92620   0.66420
C          C       0.07380   0.66820   0.33580
C          C       0.92620   0.33180   0.33580
C          C       0.16820   0.07380   0.08580
C          C       0.83180   0.92620   0.08580
C          C       0.42620   0.66820   0.41420
C          C       0.57380   0.33180   0.41420
C          C       0.93680   0.66870   0.04100
C          C       0.06320   0.33130   0.04100
C          C       0.66870   0.06320   0.95900
C          C       0.33130   0.93680   0.95900
C          C       0.56320   0.66870   0.70900
C          C       0.43680   0.33130   0.70900
C          C       0.83130   0.06320   0.79100
C          C       0.16870   0.93680   0.79100
C          C       0.43680   0.16870   0.54100
C          C       0.56320   0.83130   0.54100
C          C       0.16870   0.56320   0.45900
C          C       0.83130   0.43680   0.45900
C          C       0.06320   0.16870   0.20900
C          C       0.93680   0.83130   0.20900
C          C       0.33130   0.56320   0.29100
C          C       0.66870   0.43680   0.29100
C          C       0.08150   0.69350   0.05380
C          C       0.91850   0.30650   0.05380
C          C       0.69350   0.91850   0.94620
C          C       0.30650   0.08150   0.94620
C          C       0.41850   0.69350   0.69620
C          C       0.58150   0.30650   0.69620
C          C       0.80650   0.91850   0.80380
C          C       0.19350   0.08150   0.80380
C          C       0.58150   0.19350   0.55380
C          C       0.41850   0.80650   0.55380
C          C       0.19350   0.41850   0.44620
C          C       0.80650   0.58150   0.44620
C          C       0.91850   0.19350   0.19620
C          C       0.08150   0.80650   0.19620
C          C       0.30650   0.41850   0.30380
C          C       0.69350   0.58150   0.30380
C          C       0.18420   0.69130   0.06960
C          C       0.81580   0.30870   0.06960
C          C       0.69130   0.81580   0.93040
C          C       0.30870   0.18420   0.93040
C          C       0.31580   0.69130   0.68040
C          C       0.68420   0.30870   0.68040
C          C       0.80870   0.81580   0.81960
C          C       0.19130   0.18420   0.81960
C          C       0.68420   0.19130   0.56960
C          C       0.31580   0.80870   0.56960
C          C       0.19130   0.31580   0.43040
C          C       0.80870   0.68420   0.43040
C          C       0.81580   0.19130   0.18040
C          C       0.18420   0.80870   0.18040
C          C       0.30870   0.31580   0.31960
C          C       0.69130   0.68420   0.31960
C          C       0.83380   0.62590   0.03940
C          C       0.16620   0.37410   0.03940
C          C       0.62590   0.16620   0.96060
C          C       0.37410   0.83380   0.96060
C          C       0.66620   0.62590   0.71060
C          C       0.33380   0.37410   0.71060
C          C       0.87410   0.16620   0.78940
C          C       0.12590   0.83380   0.78940
C          C       0.33380   0.12590   0.53940
C          C       0.66620   0.87410   0.53940
C          C       0.12590   0.66620   0.46060
C          C       0.87410   0.33380   0.46060
C          C       0.16620   0.12590   0.21060
C          C       0.83380   0.87410   0.21060
C          C       0.37410   0.66620   0.28940
C          C       0.62590   0.33380   0.28940
F          F       0.84460   0.66280   0.15180
F          F       0.15540   0.33720   0.15180
F          F       0.66280   0.15540   0.84820
F          F       0.33720   0.84460   0.84820
F          F       0.65540   0.66280   0.59820
F          F       0.34460   0.33720   0.59820
F          F       0.83720   0.15540   0.90180
F          F       0.16280   0.84460   0.90180
F          F       0.34460   0.16280   0.65180
F          F       0.65540   0.83720   0.65180
F          F       0.16280   0.65540   0.34820
F          F       0.83720   0.34460   0.34820
F          F       0.15540   0.16280   0.09820
F          F       0.84460   0.83720   0.09820
F          F       0.33720   0.65540   0.40180
F          F       0.66280   0.34460   0.40180
F          F       0.79130   0.52210   0.13980
F          F       0.20870   0.47790   0.13980
F          F       0.52210   0.20870   0.86020
F          F       0.47790   0.79130   0.86020
F          F       0.70870   0.52210   0.61020
F          F       0.29130   0.47790   0.61020
F          F       0.97790   0.20870   0.88980
F          F       0.02210   0.79130   0.88980
F          F       0.29130   0.02210   0.63980
F          F       0.70870   0.97790   0.63980
F          F       0.02210   0.70870   0.36020
F          F       0.97790   0.29130   0.36020
F          F       0.20870   0.02210   0.11020
F          F       0.79130   0.97790   0.11020
F          F       0.47790   0.70870   0.38980
F          F       0.52210   0.29130   0.38980
F          F       0.77100   0.58780   0.18900
F          F       0.22900   0.41220   0.18900
F          F       0.58780   0.22900   0.81100
F          F       0.41220   0.77100   0.81100
F          F       0.72900   0.58780   0.56100
F          F       0.27100   0.41220   0.56100
F          F       0.91220   0.22900   0.93900
F          F       0.08780   0.77100   0.93900
F          F       0.27100   0.08780   0.68900
F          F       0.72900   0.91220   0.68900
F          F       0.08780   0.72900   0.31100
F          F       0.91220   0.27100   0.31100
F          F       0.22900   0.08780   0.06100
F          F       0.77100   0.91220   0.06100
F          F       0.41220   0.72900   0.43900
F          F       0.58780   0.27100   0.43900
F          F       0.21250   0.77930   0.07920
F          F       0.78750   0.22070   0.07920
F          F       0.77930   0.78750   0.92080
F          F       0.22070   0.21250   0.92080
F          F       0.28750   0.77930   0.67080
F          F       0.71250   0.22070   0.67080
F          F       0.72070   0.78750   0.82920
F          F       0.27930   0.21250   0.82920
F          F       0.71250   0.27930   0.57920
F          F       0.28750   0.72070   0.57920
F          F       0.27930   0.28750   0.42080
F          F       0.72070   0.71250   0.42080
F          F       0.78750   0.27930   0.17080
F          F       0.21250   0.72070   0.17080
F          F       0.22070   0.28750   0.32920
F          F       0.77930   0.71250   0.32920
F          F       0.25370   0.67010   0.04640
F          F       0.74630   0.32990   0.04640
F          F       0.67010   0.74630   0.95360
F          F       0.32990   0.25370   0.95360
F          F       0.24630   0.67010   0.70360
F          F       0.75370   0.32990   0.70360
F          F       0.82990   0.74630   0.79640
F          F       0.17010   0.25370   0.79640
F          F       0.75370   0.17010   0.54640
F          F       0.24630   0.82990   0.54640
F          F       0.17010   0.24630   0.45360
F          F       0.82990   0.75370   0.45360
F          F       0.74630   0.17010   0.20360
F          F       0.25370   0.82990   0.20360
F          F       0.32990   0.24630   0.29640
F          F       0.67010   0.75370   0.29640
F          F       0.19460   0.62460   0.09100
F          F       0.80540   0.37540   0.09100
F          F       0.62460   0.80540   0.90900
F          F       0.37540   0.19460   0.90900
F          F       0.30540   0.62460   0.65900
F          F       0.69460   0.37540   0.65900
F          F       0.87540   0.80540   0.84100
F          F       0.12460   0.19460   0.84100
F          F       0.69460   0.12460   0.59100
F          F       0.30540   0.87540   0.59100
F          F       0.12460   0.30540   0.40900
F          F       0.87540   0.69460   0.40900
F          F       0.80540   0.12460   0.15900
F          F       0.19460   0.87540   0.15900
F          F       0.37540   0.30540   0.34100
F          F       0.62460   0.69460   0.34100
F          F       0.79690   0.61010   0.06850
F          F       0.20310   0.38990   0.06850
F          F       0.61010   0.20310   0.93150
F          F       0.38990   0.79690   0.93150
F          F       0.70310   0.61010   0.68150
F          F       0.29690   0.38990   0.68150
F          F       0.88990   0.20310   0.81850
F          F       0.11010   0.79690   0.81850
F          F       0.29690   0.11010   0.56850
F          F       0.70310   0.88990   0.56850
F          F       0.11010   0.70310   0.43150
F          F       0.88990   0.29690   0.43150
F          F       0.20310   0.11010   0.18150
F          F       0.79690   0.88990   0.18150
F          F       0.38990   0.70310   0.31850
F          F       0.61010   0.29690   0.31850
F          F       0.83700   0.53190   0.02730
F          F       0.16300   0.46810   0.02730
F          F       0.53190   0.16300   0.97270
F          F       0.46810   0.83700   0.97270
F          F       0.66300   0.53190   0.72270
F          F       0.33700   0.46810   0.72270
F          F       0.96810   0.16300   0.77730
F          F       0.03190   0.83700   0.77730
F          F       0.33700   0.03190   0.52730
F          F       0.66300   0.96810   0.52730
F          F       0.03190   0.66300   0.47270
F          F       0.96810   0.33700   0.47270
F          F       0.16300   0.03190   0.22270
F          F       0.83700   0.96810   0.22270
F          F       0.46810   0.66300   0.27730
F          F       0.53190   0.33700   0.27730
F          F       0.77210   0.67400   0.02090
F          F       0.22790   0.32600   0.02090
F          F       0.67400   0.22790   0.97910
F          F       0.32600   0.77210   0.97910
F          F       0.72790   0.67400   0.72910
F          F       0.27210   0.32600   0.72910
F          F       0.82600   0.22790   0.77090
F          F       0.17400   0.77210   0.77090
F          F       0.27210   0.17400   0.52090
F          F       0.72790   0.82600   0.52090
F          F       0.17400   0.72790   0.47910
F          F       0.82600   0.27210   0.47910
F          F       0.22790   0.17400   0.22910
F          F       0.77210   0.82600   0.22910
F          F       0.32600   0.72790   0.27090
F          F       0.67400   0.27210   0.27090
