
#######################################################################
#
#                 Cambridge Crystallographic Data Centre
#                                CCDC 
#
#######################################################################
#
# If this CIF has been generated from an entry in the Cambridge 
# Structural Database, then it will include bibliographic, chemical, 
# crystal, experimental, refinement or atomic coordinate data resulting 
# from the CCDC's data processing and validation procedures.
#
#######################################################################

data_FMOF-1T100K_vacuum
_symmetry_cell_setting           tetragonal
_symmetry_space_group_name_H-M   'I -4 2 d'
_symmetry_Int_Tables_number      122
_space_group_name_Hall           'I -4 2bw'
loop_
_symmetry_equiv_pos_site_id
_symmetry_equiv_pos_as_xyz
1 x,y,z
2 -x,-y,z
3 y,-x,-z
4 -y,x,-z
5 1/2-x,y,3/4-z
6 1/2+x,-y,3/4-z
7 1/2-y,-x,3/4+z
8 1/2+y,x,3/4+z
9 1/2+x,1/2+y,1/2+z
10 1/2-x,1/2-y,1/2+z
11 1/2+y,1/2-x,1/2-z
12 1/2-y,1/2+x,1/2-z
13 -x,1/2+y,1/4-z
14 x,1/2-y,1/4-z
15 -y,1/2-x,1/4+z
16 y,1/2+x,1/4+z
_cell_length_a                   13.4273(7)
_cell_length_b                   13.4273(7)
_cell_length_c                   39.175(4)
_cell_angle_alpha                90.00
_cell_angle_beta                 90.00
_cell_angle_gamma                90.00
_cell_volume                     7062.95
loop_
_atom_site_label
_atom_site_type_symbol
_atom_site_fract_x
_atom_site_fract_y
_atom_site_fract_z
Ag1 Ag 0.0000 0.5000 0.09705(3)
Ag2 Ag -0.13847(7) 0.38295(7) 0.24462(3)
N1 N 0.0000 0.5000 0.1535(3)
N2 N -0.0484(7) 0.5186(8) 0.2075(3)
N3 N 0.0067(8) 0.6329(6) 0.0613(2)
N4 N -0.0382(8) 0.7449(8) 0.0225(3)
N5 N 0.0589(8) 0.7624(8) 0.0308(3)
C1 C -0.0711(10) 0.5293(10) 0.1750(3)
C2 C -0.1682(11) 0.5738(12) 0.1642(4)
C3 C -0.0632(10) 0.6687(9) 0.0410(3)
C4 C 0.0815(10) 0.6935(10) 0.0538(3)
C5 C 0.1842(12) 0.6913(11) 0.0696(4)
C6 C -0.1662(11) 0.6259(12) 0.0394(4)
F1 F -0.1554(8) 0.6628(9) 0.1518(3)
F2 F -0.2087(6) 0.5221(9) 0.1398(2)
F3 F -0.2290(7) 0.5878(10) 0.1890(2)
F4 F 0.2125(9) 0.7793(8) 0.0792(4)
F5 F 0.2537(8) 0.6701(12) 0.0464(3)
F6 F 0.1946(7) 0.6246(8) 0.0910(3)
F7 F -0.2031(8) 0.6101(14) 0.0685(3)
F8 F -0.1630(9) 0.5319(8) 0.0273(4)
F9 F -0.2279(7) 0.6740(7) 0.0209(3)
N2 N 0.0484(7) 0.4814(8) 0.2075(3)
C1 C 0.0711(10) 0.4707(10) 0.1750(3)
C2 C 0.1682(11) 0.4262(12) 0.1642(4)
F1 F 0.1554(8) 0.3372(9) 0.1518(3)
F2 F 0.2087(6) 0.4779(9) 0.1398(2)
F3 F 0.2290(7) 0.4122(10) 0.1890(2)
Ag2 Ag 0.13847(7) 0.61705(7) 0.24462(3)
N3 N -0.0067(8) 0.3671(6) 0.0613(2)
N4 N 0.0382(8) 0.2551(8) 0.0225(3)
N5 N -0.0589(8) 0.2376(8) 0.0308(3)
C3 C 0.0632(10) 0.3313(9) 0.0410(3)
C4 C -0.0815(10) 0.3065(10) 0.0538(3)
C5 C -0.1842(12) 0.3087(11) 0.0696(4)
C6 C 0.1662(11) 0.3741(12) 0.0394(4)
F4 F -0.2125(9) 0.2207(8) 0.0792(4)
F5 F -0.2537(8) 0.3299(12) 0.0464(3)
F6 F -0.1946(7) 0.3754(8) 0.0910(3)
F7 F 0.2031(8) 0.3899(14) 0.0685(3)
F8 F 0.1630(9) 0.4681(8) 0.0273(4)
F9 F 0.2279(7) 0.3260(7) 0.0209(3)
Ag2 Ag 0.11705(7) 0.13847(7) -0.00538(3)
Ag2 Ag -0.11705(7) 0.86153(7) -0.00538(3)
Ag2 Ag -0.11705(7) 0.63847(7) 0.25538(3)
Ag2 Ag 0.11705(7) 0.36153(7) 0.25538(3)
Ag2 Ag 0.13847(7) 0.88295(7) 0.00538(3)
Ag2 Ag -0.13847(7) 0.11705(7) 0.00538(3)
N2 N 0.0186(8) 0.5484(7) 0.2925(3)
N2 N -0.0186(8) 0.4516(7) 0.2925(3)
N4 N 0.2551(8) 0.5382(8) 0.2725(3)
N4 N -0.2551(8) 0.4618(8) 0.2725(3)
N5 N -0.0589(8) 0.2624(8) 0.2192(3)
N5 N 0.0589(8) 0.7376(8) 0.2192(3)
Ag1 Ag 1.0000 0.5000 0.09705(3)
Ag2 Ag 0.86153(7) 0.38295(7) 0.24462(3)
N1 N 1.0000 0.5000 0.1535(3)
N2 N 0.9516(7) 0.5186(8) 0.2075(3)
N3 N 1.0067(8) 0.6329(6) 0.0613(2)
N4 N 0.9618(8) 0.7449(8) 0.0225(3)
N5 N 1.0589(8) 0.7624(8) 0.0308(3)
C1 C 0.9289(10) 0.5293(10) 0.1750(3)
C2 C 0.8318(11) 0.5738(12) 0.1642(4)
C3 C 0.9368(10) 0.6687(9) 0.0410(3)
C4 C 1.0815(10) 0.6935(10) 0.0538(3)
C5 C 1.1842(12) 0.6913(11) 0.0696(4)
C6 C 0.8338(11) 0.6259(12) 0.0394(4)
F1 F 0.8446(8) 0.6628(9) 0.1518(3)
F2 F 0.7913(6) 0.5221(9) 0.1398(2)
F3 F 0.7710(7) 0.5878(10) 0.1890(2)
F4 F 1.2125(9) 0.7793(8) 0.0792(4)
F5 F 1.2537(8) 0.6701(12) 0.0464(3)
F6 F 1.1946(7) 0.6246(8) 0.0910(3)
F7 F 0.7969(8) 0.6101(14) 0.0685(3)
F8 F 0.8370(9) 0.5319(8) 0.0273(4)
F9 F 0.7721(7) 0.6740(7) 0.0209(3)
N2 N 1.0484(7) 0.4814(8) 0.2075(3)
C1 C 1.0711(10) 0.4707(10) 0.1750(3)
C2 C 1.1682(11) 0.4262(12) 0.1642(4)
F1 F 1.1554(8) 0.3372(9) 0.1518(3)
F2 F 1.2087(6) 0.4779(9) 0.1398(2)
F3 F 1.2290(7) 0.4122(10) 0.1890(2)
Ag2 Ag 1.13847(7) 0.61705(7) 0.24462(3)
N3 N 0.9933(8) 0.3671(6) 0.0613(2)
N4 N 1.0382(8) 0.2551(8) 0.0225(3)
N5 N 0.9411(8) 0.2376(8) 0.0308(3)
C3 C 1.0632(10) 0.3313(9) 0.0410(3)
C4 C 0.9185(10) 0.3065(10) 0.0538(3)
C5 C 0.8158(12) 0.3087(11) 0.0696(4)
C6 C 1.1662(11) 0.3741(12) 0.0394(4)
F4 F 0.7875(9) 0.2207(8) 0.0792(4)
F5 F 0.7463(8) 0.3299(12) 0.0464(3)
F6 F 0.8054(7) 0.3754(8) 0.0910(3)
F7 F 1.2031(8) 0.3899(14) 0.0685(3)
F8 F 1.1630(9) 0.4681(8) 0.0273(4)
F9 F 1.2279(7) 0.3260(7) 0.0209(3)
Ag2 Ag 1.11705(7) 0.13847(7) -0.00538(3)
Ag2 Ag 0.88295(7) 0.86153(7) -0.00538(3)
Ag2 Ag 0.88295(7) 0.63847(7) 0.25538(3)
Ag2 Ag 1.11705(7) 0.36153(7) 0.25538(3)
Ag2 Ag 1.13847(7) 0.88295(7) 0.00538(3)
Ag2 Ag 0.86153(7) 0.11705(7) 0.00538(3)
N2 N 1.0186(8) 0.5484(7) 0.2925(3)
N2 N 0.9814(8) 0.4516(7) 0.2925(3)
N4 N 1.2551(8) 0.5382(8) 0.2725(3)
N4 N 0.7449(8) 0.4618(8) 0.2725(3)
N5 N 0.9411(8) 0.2624(8) 0.2192(3)
N5 N 1.0589(8) 0.7376(8) 0.2192(3)
Ag1 Ag 0.5000 0.0000 0.90295(3)
Ag2 Ag 0.38295(7) 0.13847(7) 0.75538(3)
N1 N 0.5000 0.0000 0.8465(3)
N2 N 0.5186(8) 0.0484(7) 0.7925(3)
N3 N 0.6329(6) -0.0067(8) 0.9387(2)
N4 N 0.7449(8) 0.0382(8) 0.9775(3)
N5 N 0.7624(8) -0.0589(8) 0.9692(3)
C1 C 0.5293(10) 0.0711(10) 0.8250(3)
C2 C 0.5738(12) 0.1682(11) 0.8358(4)
C3 C 0.6687(9) 0.0632(10) 0.9590(3)
C4 C 0.6935(10) -0.0815(10) 0.9462(3)
C5 C 0.6913(11) -0.1842(12) 0.9304(4)
C6 C 0.6259(12) 0.1662(11) 0.9606(4)
F1 F 0.6628(9) 0.1554(8) 0.8482(3)
F2 F 0.5221(9) 0.2087(6) 0.8602(2)
F3 F 0.5878(10) 0.2290(7) 0.8110(2)
F4 F 0.7793(8) -0.2125(9) 0.9208(4)
F5 F 0.6701(12) -0.2537(8) 0.9536(3)
F6 F 0.6246(8) -0.1946(7) 0.9090(3)
F7 F 0.6101(14) 0.2031(8) 0.9315(3)
F8 F 0.5319(8) 0.1630(9) 0.9727(4)
F9 F 0.6740(7) 0.2279(7) 0.9791(3)
N2 N 0.4814(8) -0.0484(7) 0.7925(3)
C1 C 0.4707(10) -0.0711(10) 0.8250(3)
C2 C 0.4262(12) -0.1682(11) 0.8358(4)
F1 F 0.3372(9) -0.1554(8) 0.8482(3)
F2 F 0.4779(9) -0.2087(6) 0.8602(2)
F3 F 0.4122(10) -0.2290(7) 0.8110(2)
Ag2 Ag 0.61705(7) -0.13847(7) 0.75538(3)
N3 N 0.3671(6) 0.0067(8) 0.9387(2)
N4 N 0.2551(8) -0.0382(8) 0.9775(3)
N5 N 0.2376(8) 0.0589(8) 0.9692(3)
C3 C 0.3313(9) -0.0632(10) 0.9590(3)
C4 C 0.3065(10) 0.0815(10) 0.9462(3)
C5 C 0.3087(11) 0.1842(12) 0.9304(4)
C6 C 0.3741(12) -0.1662(11) 0.9606(4)
F4 F 0.2207(8) 0.2125(9) 0.9208(4)
F5 F 0.3299(12) 0.2537(8) 0.9536(3)
F6 F 0.3754(8) 0.1946(7) 0.9090(3)
F7 F 0.3899(14) -0.2031(8) 0.9315(3)
F8 F 0.4681(8) -0.1630(9) 0.9727(4)
F9 F 0.3260(7) -0.2279(7) 0.9791(3)
Ag2 Ag 0.13847(7) -0.11705(7) 1.00538(3)
Ag2 Ag 0.86153(7) 0.11705(7) 1.00538(3)
Ag2 Ag 0.63847(7) 0.11705(7) 0.74462(3)
Ag2 Ag 0.36153(7) -0.11705(7) 0.74462(3)
Ag2 Ag 0.88295(7) -0.13847(7) 0.99462(3)
Ag2 Ag 0.11705(7) 0.13847(7) 0.99462(3)
N2 N 0.5484(7) -0.0186(8) 0.7075(3)
N2 N 0.4516(7) 0.0186(8) 0.7075(3)
N4 N 0.5382(8) -0.2551(8) 0.7275(3)
N4 N 0.4618(8) 0.2551(8) 0.7275(3)
N5 N 0.2624(8) 0.0589(8) 0.7808(3)
N5 N 0.7376(8) -0.0589(8) 0.7808(3)
Ag1 Ag 0.5000 1.0000 0.90295(3)
Ag2 Ag 0.38295(7) 1.13847(7) 0.75538(3)
N1 N 0.5000 1.0000 0.8465(3)
N2 N 0.5186(8) 1.0484(7) 0.7925(3)
N3 N 0.6329(6) 0.9933(8) 0.9387(2)
N4 N 0.7449(8) 1.0382(8) 0.9775(3)
N5 N 0.7624(8) 0.9411(8) 0.9692(3)
C1 C 0.5293(10) 1.0711(10) 0.8250(3)
C2 C 0.5738(12) 1.1682(11) 0.8358(4)
C3 C 0.6687(9) 1.0632(10) 0.9590(3)
C4 C 0.6935(10) 0.9185(10) 0.9462(3)
C5 C 0.6913(11) 0.8158(12) 0.9304(4)
C6 C 0.6259(12) 1.1662(11) 0.9606(4)
F1 F 0.6628(9) 1.1554(8) 0.8482(3)
F2 F 0.5221(9) 1.2087(6) 0.8602(2)
F3 F 0.5878(10) 1.2290(7) 0.8110(2)
F4 F 0.7793(8) 0.7875(9) 0.9208(4)
F5 F 0.6701(12) 0.7463(8) 0.9536(3)
F6 F 0.6246(8) 0.8054(7) 0.9090(3)
F7 F 0.6101(14) 1.2031(8) 0.9315(3)
F8 F 0.5319(8) 1.1630(9) 0.9727(4)
F9 F 0.6740(7) 1.2279(7) 0.9791(3)
N2 N 0.4814(8) 0.9516(7) 0.7925(3)
C1 C 0.4707(10) 0.9289(10) 0.8250(3)
C2 C 0.4262(12) 0.8318(11) 0.8358(4)
F1 F 0.3372(9) 0.8446(8) 0.8482(3)
F2 F 0.4779(9) 0.7913(6) 0.8602(2)
F3 F 0.4122(10) 0.7710(7) 0.8110(2)
Ag2 Ag 0.61705(7) 0.86153(7) 0.75538(3)
N3 N 0.3671(6) 1.0067(8) 0.9387(2)
N4 N 0.2551(8) 0.9618(8) 0.9775(3)
N5 N 0.2376(8) 1.0589(8) 0.9692(3)
C3 C 0.3313(9) 0.9368(10) 0.9590(3)
C4 C 0.3065(10) 1.0815(10) 0.9462(3)
C5 C 0.3087(11) 1.1842(12) 0.9304(4)
C6 C 0.3741(12) 0.8338(11) 0.9606(4)
F4 F 0.2207(8) 1.2125(9) 0.9208(4)
F5 F 0.3299(12) 1.2537(8) 0.9536(3)
F6 F 0.3754(8) 1.1946(7) 0.9090(3)
F7 F 0.3899(14) 0.7969(8) 0.9315(3)
F8 F 0.4681(8) 0.8370(9) 0.9727(4)
F9 F 0.3260(7) 0.7721(7) 0.9791(3)
Ag2 Ag 0.13847(7) 0.88295(7) 1.00538(3)
Ag2 Ag 0.86153(7) 1.11705(7) 1.00538(3)
Ag2 Ag 0.63847(7) 1.11705(7) 0.74462(3)
Ag2 Ag 0.36153(7) 0.88295(7) 0.74462(3)
Ag2 Ag 0.88295(7) 0.86153(7) 0.99462(3)
Ag2 Ag 0.11705(7) 1.13847(7) 0.99462(3)
N2 N 0.5484(7) 0.9814(8) 0.7075(3)
N2 N 0.4516(7) 1.0186(8) 0.7075(3)
N4 N 0.5382(8) 0.7449(8) 0.7275(3)
N4 N 0.4618(8) 1.2551(8) 0.7275(3)
N5 N 0.2624(8) 1.0589(8) 0.7808(3)
N5 N 0.7376(8) 0.9411(8) 0.7808(3)
Ag1 Ag 0.5000 0.5000 0.65295(3)
Ag2 Ag 0.63847(7) 0.38295(7) 0.50538(3)
N1 N 0.5000 0.5000 0.5965(3)
N2 N 0.5484(7) 0.5186(8) 0.5425(3)
N3 N 0.4933(8) 0.6329(6) 0.6887(2)
N5 N 0.4411(8) 0.7624(8) 0.7192(3)
C1 C 0.5711(10) 0.5293(10) 0.5750(3)
C2 C 0.6682(11) 0.5738(12) 0.5858(4)
C3 C 0.5632(10) 0.6687(9) 0.7090(3)
C4 C 0.4185(10) 0.6935(10) 0.6962(3)
C5 C 0.3158(12) 0.6913(11) 0.6804(4)
C6 C 0.6662(11) 0.6259(12) 0.7106(4)
F1 F 0.6554(8) 0.6628(9) 0.5982(3)
F2 F 0.7087(6) 0.5221(9) 0.6102(2)
F3 F 0.7290(7) 0.5878(10) 0.5610(2)
F4 F 0.2875(9) 0.7793(8) 0.6708(4)
F5 F 0.2463(8) 0.6701(12) 0.7036(3)
F6 F 0.3054(7) 0.6246(8) 0.6590(3)
F7 F 0.7031(8) 0.6101(14) 0.6815(3)
F8 F 0.6630(9) 0.5319(8) 0.7227(4)
F9 F 0.7279(7) 0.6740(7) 0.7291(3)
N2 N 0.4516(7) 0.4814(8) 0.5425(3)
C1 C 0.4289(10) 0.4707(10) 0.5750(3)
C2 C 0.3318(11) 0.4262(12) 0.5858(4)
F1 F 0.3446(8) 0.3372(9) 0.5982(3)
F2 F 0.2913(6) 0.4779(9) 0.6102(2)
F3 F 0.2710(7) 0.4122(10) 0.5610(2)
Ag2 Ag 0.36153(7) 0.61705(7) 0.50538(3)
N3 N 0.5067(8) 0.3671(6) 0.6887(2)
N5 N 0.5589(8) 0.2376(8) 0.7192(3)
C3 C 0.4368(10) 0.3313(9) 0.7090(3)
C4 C 0.5815(10) 0.3065(10) 0.6962(3)
C5 C 0.6842(12) 0.3087(11) 0.6804(4)
C6 C 0.3338(11) 0.3741(12) 0.7106(4)
F4 F 0.7125(9) 0.2207(8) 0.6708(4)
F5 F 0.7537(8) 0.3299(12) 0.7036(3)
F6 F 0.6946(7) 0.3754(8) 0.6590(3)
F7 F 0.2969(8) 0.3899(14) 0.6815(3)
F8 F 0.3370(9) 0.4681(8) 0.7227(4)
F9 F 0.2721(7) 0.3260(7) 0.7291(3)
Ag2 Ag 0.61705(7) 0.63847(7) 0.49462(3)
Ag2 Ag 0.38295(7) 0.36153(7) 0.49462(3)
N2 N 0.4814(8) 0.5484(7) 0.4575(3)
N2 N 0.5186(8) 0.4516(7) 0.4575(3)
N4 N 0.2449(8) 0.5382(8) 0.4775(3)
N4 N 0.7551(8) 0.4618(8) 0.4775(3)
N5 N 0.5589(8) 0.2624(8) 0.5308(3)
N5 N 0.4411(8) 0.7376(8) 0.5308(3)
Ag1 Ag 0.0000 0.0000 0.84705(3)
N1 N 0.0000 0.0000 0.9035(3)
N2 N -0.0186(8) 0.0484(7) 0.9575(3)
N3 N -0.1329(6) -0.0067(8) 0.8113(2)
N4 N -0.2449(8) 0.0382(8) 0.7725(3)
N5 N -0.2624(8) -0.0589(8) 0.7808(3)
C1 C -0.0293(10) 0.0711(10) 0.9250(3)
C2 C -0.0738(12) 0.1682(11) 0.9142(4)
C3 C -0.1687(9) 0.0632(10) 0.7910(3)
C4 C -0.1935(10) -0.0815(10) 0.8038(3)
C5 C -0.1913(11) -0.1842(12) 0.8196(4)
C6 C -0.1259(12) 0.1662(11) 0.7894(4)
F1 F -0.1628(9) 0.1554(8) 0.9018(3)
F2 F -0.0221(9) 0.2087(6) 0.8898(2)
F3 F -0.0878(10) 0.2290(7) 0.9390(2)
F4 F -0.2793(8) -0.2125(9) 0.8292(4)
F5 F -0.1701(12) -0.2537(8) 0.7964(3)
F6 F -0.1246(8) -0.1946(7) 0.8410(3)
F7 F -0.1101(14) 0.2031(8) 0.8185(3)
F8 F -0.0319(8) 0.1630(9) 0.7773(4)
F9 F -0.1740(7) 0.2279(7) 0.7709(3)
N2 N 0.0186(8) -0.0484(7) 0.9575(3)
C1 C 0.0293(10) -0.0711(10) 0.9250(3)
C2 C 0.0738(12) -0.1682(11) 0.9142(4)
F1 F 0.1628(9) -0.1554(8) 0.9018(3)
F2 F 0.0221(9) -0.2087(6) 0.8898(2)
F3 F 0.0878(10) -0.2290(7) 0.9390(2)
Ag2 Ag -0.11705(7) -0.13847(7) 0.99462(3)
N3 N 0.1329(6) 0.0067(8) 0.8113(2)
N4 N 0.2449(8) -0.0382(8) 0.7725(3)
C3 C 0.1687(9) -0.0632(10) 0.7910(3)
C4 C 0.1935(10) 0.0815(10) 0.8038(3)
C5 C 0.1913(11) 0.1842(12) 0.8196(4)
C6 C 0.1259(12) -0.1662(11) 0.7894(4)
F4 F 0.2793(8) 0.2125(9) 0.8292(4)
F5 F 0.1701(12) 0.2537(8) 0.7964(3)
F6 F 0.1246(8) 0.1946(7) 0.8410(3)
F7 F 0.1101(14) -0.2031(8) 0.8185(3)
F8 F 0.0319(8) -0.1630(9) 0.7773(4)
F9 F 0.1740(7) -0.2279(7) 0.7709(3)
Ag2 Ag -0.36153(7) 0.11705(7) 0.74462(3)
Ag2 Ag -0.13847(7) 0.11705(7) 1.00538(3)
Ag2 Ag -0.38295(7) -0.13847(7) 0.75538(3)
N2 N -0.0484(7) -0.0186(8) 1.0425(3)
N2 N 0.0484(7) 0.0186(8) 1.0425(3)
N4 N -0.0382(8) -0.2551(8) 1.0225(3)
N4 N 0.0382(8) 0.2551(8) 1.0225(3)
N5 N -0.2376(8) -0.0589(8) 0.9692(3)
Ag1 Ag 0.0000 1.0000 0.84705(3)
N1 N 0.0000 1.0000 0.9035(3)
N2 N -0.0186(8) 1.0484(7) 0.9575(3)
N3 N -0.1329(6) 0.9933(8) 0.8113(2)
N4 N -0.2449(8) 1.0382(8) 0.7725(3)
N5 N -0.2624(8) 0.9411(8) 0.7808(3)
C1 C -0.0293(10) 1.0711(10) 0.9250(3)
C2 C -0.0738(12) 1.1682(11) 0.9142(4)
C3 C -0.1687(9) 1.0632(10) 0.7910(3)
C4 C -0.1935(10) 0.9185(10) 0.8038(3)
C5 C -0.1913(11) 0.8158(12) 0.8196(4)
C6 C -0.1259(12) 1.1662(11) 0.7894(4)
F1 F -0.1628(9) 1.1554(8) 0.9018(3)
F2 F -0.0221(9) 1.2087(6) 0.8898(2)
F3 F -0.0878(10) 1.2290(7) 0.9390(2)
F4 F -0.2793(8) 0.7875(9) 0.8292(4)
F5 F -0.1701(12) 0.7463(8) 0.7964(3)
F6 F -0.1246(8) 0.8054(7) 0.8410(3)
F7 F -0.1101(14) 1.2031(8) 0.8185(3)
F8 F -0.0319(8) 1.1630(9) 0.7773(4)
F9 F -0.1740(7) 1.2279(7) 0.7709(3)
N2 N 0.0186(8) 0.9516(7) 0.9575(3)
C1 C 0.0293(10) 0.9289(10) 0.9250(3)
C2 C 0.0738(12) 0.8318(11) 0.9142(4)
F1 F 0.1628(9) 0.8446(8) 0.9018(3)
F2 F 0.0221(9) 0.7913(6) 0.8898(2)
F3 F 0.0878(10) 0.7710(7) 0.9390(2)
Ag2 Ag -0.11705(7) 0.86153(7) 0.99462(3)
N3 N 0.1329(6) 1.0067(8) 0.8113(2)
N4 N 0.2449(8) 0.9618(8) 0.7725(3)
C3 C 0.1687(9) 0.9368(10) 0.7910(3)
C4 C 0.1935(10) 1.0815(10) 0.8038(3)
C5 C 0.1913(11) 1.1842(12) 0.8196(4)
C6 C 0.1259(12) 0.8338(11) 0.7894(4)
F4 F 0.2793(8) 1.2125(9) 0.8292(4)
F5 F 0.1701(12) 1.2537(8) 0.7964(3)
F6 F 0.1246(8) 1.1946(7) 0.8410(3)
F7 F 0.1101(14) 0.7969(8) 0.8185(3)
F8 F 0.0319(8) 0.8370(9) 0.7773(4)
F9 F 0.1740(7) 0.7721(7) 0.7709(3)
Ag2 Ag -0.36153(7) 1.11705(7) 0.74462(3)
Ag2 Ag -0.13847(7) 1.11705(7) 1.00538(3)
Ag2 Ag -0.38295(7) 0.86153(7) 0.75538(3)
N2 N -0.0484(7) 0.9814(8) 1.0425(3)
N2 N 0.0484(7) 1.0186(8) 1.0425(3)
N4 N -0.0382(8) 0.7449(8) 1.0225(3)
N4 N 0.0382(8) 1.2551(8) 1.0225(3)
N5 N -0.2376(8) 0.9411(8) 0.9692(3)
Ag1 Ag 1.0000 0.0000 0.84705(3)
Ag2 Ag 1.11705(7) 0.13847(7) 0.99462(3)
N1 N 1.0000 0.0000 0.9035(3)
N2 N 0.9814(8) 0.0484(7) 0.9575(3)
N3 N 0.8671(6) -0.0067(8) 0.8113(2)
N4 N 0.7551(8) 0.0382(8) 0.7725(3)
C1 C 0.9707(10) 0.0711(10) 0.9250(3)
C2 C 0.9262(12) 0.1682(11) 0.9142(4)
C3 C 0.8313(9) 0.0632(10) 0.7910(3)
C4 C 0.8065(10) -0.0815(10) 0.8038(3)
C5 C 0.8087(11) -0.1842(12) 0.8196(4)
C6 C 0.8741(12) 0.1662(11) 0.7894(4)
F1 F 0.8372(9) 0.1554(8) 0.9018(3)
F2 F 0.9779(9) 0.2087(6) 0.8898(2)
F3 F 0.9122(10) 0.2290(7) 0.9390(2)
F4 F 0.7207(8) -0.2125(9) 0.8292(4)
F5 F 0.8299(12) -0.2537(8) 0.7964(3)
F6 F 0.8754(8) -0.1946(7) 0.8410(3)
F7 F 0.8899(14) 0.2031(8) 0.8185(3)
F8 F 0.9681(8) 0.1630(9) 0.7773(4)
F9 F 0.8260(7) 0.2279(7) 0.7709(3)
N2 N 1.0186(8) -0.0484(7) 0.9575(3)
C1 C 1.0293(10) -0.0711(10) 0.9250(3)
C2 C 1.0738(12) -0.1682(11) 0.9142(4)
F1 F 1.1628(9) -0.1554(8) 0.9018(3)
F2 F 1.0221(9) -0.2087(6) 0.8898(2)
F3 F 1.0878(10) -0.2290(7) 0.9390(2)
N3 N 1.1329(6) 0.0067(8) 0.8113(2)
N4 N 1.2449(8) -0.0382(8) 0.7725(3)
N5 N 1.2624(8) 0.0589(8) 0.7808(3)
C3 C 1.1687(9) -0.0632(10) 0.7910(3)
C4 C 1.1935(10) 0.0815(10) 0.8038(3)
C5 C 1.1913(11) 0.1842(12) 0.8196(4)
C6 C 1.1259(12) -0.1662(11) 0.7894(4)
F4 F 1.2793(8) 0.2125(9) 0.8292(4)
F5 F 1.1701(12) 0.2537(8) 0.7964(3)
F6 F 1.1246(8) 0.1946(7) 0.8410(3)
F7 F 1.1101(14) -0.2031(8) 0.8185(3)
F8 F 1.0319(8) -0.1630(9) 0.7773(4)
F9 F 1.1740(7) -0.2279(7) 0.7709(3)
Ag2 Ag 1.36153(7) -0.11705(7) 0.74462(3)
Ag2 Ag 1.13847(7) -0.11705(7) 1.00538(3)
Ag2 Ag 1.38295(7) 0.13847(7) 0.75538(3)
N2 N 0.9516(7) -0.0186(8) 1.0425(3)
N2 N 1.0484(7) 0.0186(8) 1.0425(3)
N4 N 0.9618(8) -0.2551(8) 1.0225(3)
N4 N 1.0382(8) 0.2551(8) 1.0225(3)
N5 N 1.2376(8) 0.0589(8) 0.9692(3)
Ag1 Ag 1.0000 1.0000 0.84705(3)
Ag2 Ag 1.11705(7) 1.13847(7) 0.99462(3)
N1 N 1.0000 1.0000 0.9035(3)
N2 N 0.9814(8) 1.0484(7) 0.9575(3)
N3 N 0.8671(6) 0.9933(8) 0.8113(2)
N4 N 0.7551(8) 1.0382(8) 0.7725(3)
C1 C 0.9707(10) 1.0711(10) 0.9250(3)
C2 C 0.9262(12) 1.1682(11) 0.9142(4)
C3 C 0.8313(9) 1.0632(10) 0.7910(3)
C4 C 0.8065(10) 0.9185(10) 0.8038(3)
C5 C 0.8087(11) 0.8158(12) 0.8196(4)
C6 C 0.8741(12) 1.1662(11) 0.7894(4)
F1 F 0.8372(9) 1.1554(8) 0.9018(3)
F2 F 0.9779(9) 1.2087(6) 0.8898(2)
F3 F 0.9122(10) 1.2290(7) 0.9390(2)
F4 F 0.7207(8) 0.7875(9) 0.8292(4)
F5 F 0.8299(12) 0.7463(8) 0.7964(3)
F6 F 0.8754(8) 0.8054(7) 0.8410(3)
F7 F 0.8899(14) 1.2031(8) 0.8185(3)
F8 F 0.9681(8) 1.1630(9) 0.7773(4)
F9 F 0.8260(7) 1.2279(7) 0.7709(3)
N2 N 1.0186(8) 0.9516(7) 0.9575(3)
C1 C 1.0293(10) 0.9289(10) 0.9250(3)
C2 C 1.0738(12) 0.8318(11) 0.9142(4)
F1 F 1.1628(9) 0.8446(8) 0.9018(3)
F2 F 1.0221(9) 0.7913(6) 0.8898(2)
F3 F 1.0878(10) 0.7710(7) 0.9390(2)
N3 N 1.1329(6) 1.0067(8) 0.8113(2)
N4 N 1.2449(8) 0.9618(8) 0.7725(3)
N5 N 1.2624(8) 1.0589(8) 0.7808(3)
C3 C 1.1687(9) 0.9368(10) 0.7910(3)
C4 C 1.1935(10) 1.0815(10) 0.8038(3)
C5 C 1.1913(11) 1.1842(12) 0.8196(4)
C6 C 1.1259(12) 0.8338(11) 0.7894(4)
F4 F 1.2793(8) 1.2125(9) 0.8292(4)
F5 F 1.1701(12) 1.2537(8) 0.7964(3)
F6 F 1.1246(8) 1.1946(7) 0.8410(3)
F7 F 1.1101(14) 0.7969(8) 0.8185(3)
F8 F 1.0319(8) 0.8370(9) 0.7773(4)
F9 F 1.1740(7) 0.7721(7) 0.7709(3)
Ag2 Ag 1.36153(7) 0.88295(7) 0.74462(3)
Ag2 Ag 1.13847(7) 0.88295(7) 1.00538(3)
Ag2 Ag 1.38295(7) 1.13847(7) 0.75538(3)
N2 N 0.9516(7) 0.9814(8) 1.0425(3)
N2 N 1.0484(7) 1.0186(8) 1.0425(3)
N4 N 0.9618(8) 0.7449(8) 1.0225(3)
N4 N 1.0382(8) 1.2551(8) 1.0225(3)
N5 N 1.2376(8) 1.0589(8) 0.9692(3)
Ag1 Ag 0.5000 0.0000 0.59705(3)
N1 N 0.5000 0.0000 0.6535(3)
N3 N 0.5067(8) 0.1329(6) 0.5613(2)
N4 N 0.4618(8) 0.2449(8) 0.5225(3)
C1 C 0.4289(10) 0.0293(10) 0.6750(3)
C2 C 0.3318(11) 0.0738(12) 0.6642(4)
C3 C 0.4368(10) 0.1687(9) 0.5410(3)
C4 C 0.5815(10) 0.1935(10) 0.5538(3)
C5 C 0.6842(12) 0.1913(11) 0.5696(4)
C6 C 0.3338(11) 0.1259(12) 0.5394(4)
F1 F 0.3446(8) 0.1628(9) 0.6518(3)
F2 F 0.2913(6) 0.0221(9) 0.6398(2)
F3 F 0.2710(7) 0.0878(10) 0.6890(2)
F4 F 0.7125(9) 0.2793(8) 0.5792(4)
F5 F 0.7537(8) 0.1701(12) 0.5464(3)
F6 F 0.6946(7) 0.1246(8) 0.5910(3)
F7 F 0.2969(8) 0.1101(14) 0.5685(3)
F8 F 0.3370(9) 0.0319(8) 0.5273(4)
F9 F 0.2721(7) 0.1740(7) 0.5209(3)
C1 C 0.5711(10) -0.0293(10) 0.6750(3)
C2 C 0.6682(11) -0.0738(12) 0.6642(4)
F1 F 0.6554(8) -0.1628(9) 0.6518(3)
F2 F 0.7087(6) -0.0221(9) 0.6398(2)
F3 F 0.7290(7) -0.0878(10) 0.6890(2)
N3 N 0.4933(8) -0.1329(6) 0.5613(2)
N4 N 0.5382(8) -0.2449(8) 0.5225(3)
N5 N 0.4411(8) -0.2624(8) 0.5308(3)
C3 C 0.5632(10) -0.1687(9) 0.5410(3)
C4 C 0.4185(10) -0.1935(10) 0.5538(3)
C5 C 0.3158(12) -0.1913(11) 0.5696(4)
C6 C 0.6662(11) -0.1259(12) 0.5394(4)
F4 F 0.2875(9) -0.2793(8) 0.5792(4)
F5 F 0.2463(8) -0.1701(12) 0.5464(3)
F6 F 0.3054(7) -0.1246(8) 0.5910(3)
F7 F 0.7031(8) -0.1101(14) 0.5685(3)
F8 F 0.6630(9) -0.0319(8) 0.5273(4)
F9 F 0.7279(7) -0.1740(7) 0.5209(3)
Ag2 Ag 0.61705(7) -0.36153(7) 0.49462(3)
Ag2 Ag 0.36153(7) -0.38295(7) 0.50538(3)
N5 N 0.4411(8) -0.2376(8) 0.7192(3)
Ag1 Ag 0.5000 1.0000 0.59705(3)
N1 N 0.5000 1.0000 0.6535(3)
N3 N 0.5067(8) 1.1329(6) 0.5613(2)
N4 N 0.4618(8) 1.2449(8) 0.5225(3)
N5 N 0.5589(8) 1.2624(8) 0.5308(3)
C1 C 0.4289(10) 1.0293(10) 0.6750(3)
C2 C 0.3318(11) 1.0738(12) 0.6642(4)
C3 C 0.4368(10) 1.1687(9) 0.5410(3)
C4 C 0.5815(10) 1.1935(10) 0.5538(3)
C5 C 0.6842(12) 1.1913(11) 0.5696(4)
C6 C 0.3338(11) 1.1259(12) 0.5394(4)
F1 F 0.3446(8) 1.1628(9) 0.6518(3)
F2 F 0.2913(6) 1.0221(9) 0.6398(2)
F3 F 0.2710(7) 1.0878(10) 0.6890(2)
F4 F 0.7125(9) 1.2793(8) 0.5792(4)
F5 F 0.7537(8) 1.1701(12) 0.5464(3)
F6 F 0.6946(7) 1.1246(8) 0.5910(3)
F7 F 0.2969(8) 1.1101(14) 0.5685(3)
F8 F 0.3370(9) 1.0319(8) 0.5273(4)
F9 F 0.2721(7) 1.1740(7) 0.5209(3)
C1 C 0.5711(10) 0.9707(10) 0.6750(3)
C2 C 0.6682(11) 0.9262(12) 0.6642(4)
F1 F 0.6554(8) 0.8372(9) 0.6518(3)
F2 F 0.7087(6) 0.9779(9) 0.6398(2)
F3 F 0.7290(7) 0.9122(10) 0.6890(2)
N3 N 0.4933(8) 0.8671(6) 0.5613(2)
N4 N 0.5382(8) 0.7551(8) 0.5225(3)
C3 C 0.5632(10) 0.8313(9) 0.5410(3)
C4 C 0.4185(10) 0.8065(10) 0.5538(3)
C5 C 0.3158(12) 0.8087(11) 0.5696(4)
C6 C 0.6662(11) 0.8741(12) 0.5394(4)
F4 F 0.2875(9) 0.7207(8) 0.5792(4)
F5 F 0.2463(8) 0.8299(12) 0.5464(3)
F6 F 0.3054(7) 0.8754(8) 0.5910(3)
F7 F 0.7031(8) 0.8899(14) 0.5685(3)
F8 F 0.6630(9) 0.9681(8) 0.5273(4)
F9 F 0.7279(7) 0.8260(7) 0.5209(3)
Ag2 Ag 0.38295(7) 1.36153(7) 0.49462(3)
Ag2 Ag 0.63847(7) 1.38295(7) 0.50538(3)
N5 N 0.5589(8) 1.2376(8) 0.7192(3)
Ag1 Ag 0.0000 0.5000 0.40295(3)
N1 N 0.0000 0.5000 0.3465(3)
N3 N 0.1329(6) 0.4933(8) 0.4387(2)
N5 N 0.2624(8) 0.4411(8) 0.4692(3)
C1 C 0.0293(10) 0.5711(10) 0.3250(3)
C2 C 0.0738(12) 0.6682(11) 0.3358(4)
C3 C 0.1687(9) 0.5632(10) 0.4590(3)
C4 C 0.1935(10) 0.4185(10) 0.4462(3)
C5 C 0.1913(11) 0.3158(12) 0.4304(4)
C6 C 0.1259(12) 0.6662(11) 0.4606(4)
F1 F 0.1628(9) 0.6554(8) 0.3482(3)
F2 F 0.0221(9) 0.7087(6) 0.3602(2)
F3 F 0.0878(10) 0.7290(7) 0.3110(2)
F4 F 0.2793(8) 0.2875(9) 0.4208(4)
F5 F 0.1701(12) 0.2463(8) 0.4536(3)
F6 F 0.1246(8) 0.3054(7) 0.4090(3)
F7 F 0.1101(14) 0.7031(8) 0.4315(3)
F8 F 0.0319(8) 0.6630(9) 0.4727(4)
F9 F 0.1740(7) 0.7279(7) 0.4791(3)
C1 C -0.0293(10) 0.4289(10) 0.3250(3)
C2 C -0.0738(12) 0.3318(11) 0.3358(4)
F1 F -0.1628(9) 0.3446(8) 0.3482(3)
F2 F -0.0221(9) 0.2913(6) 0.3602(2)
F3 F -0.0878(10) 0.2710(7) 0.3110(2)
N3 N -0.1329(6) 0.5067(8) 0.4387(2)
N4 N -0.2449(8) 0.4618(8) 0.4775(3)
N5 N -0.2624(8) 0.5589(8) 0.4692(3)
C3 C -0.1687(9) 0.4368(10) 0.4590(3)
C4 C -0.1935(10) 0.5815(10) 0.4462(3)
C5 C -0.1913(11) 0.6842(12) 0.4304(4)
C6 C -0.1259(12) 0.3338(11) 0.4606(4)
F4 F -0.2793(8) 0.7125(9) 0.4208(4)
F5 F -0.1701(12) 0.7537(8) 0.4536(3)
F6 F -0.1246(8) 0.6946(7) 0.4090(3)
F7 F -0.1101(14) 0.2969(8) 0.4315(3)
F8 F -0.0319(8) 0.3370(9) 0.4727(4)
F9 F -0.1740(7) 0.2721(7) 0.4791(3)
Ag2 Ag -0.36153(7) 0.38295(7) 0.50538(3)
Ag2 Ag -0.38295(7) 0.63847(7) 0.49462(3)
N4 N 0.0382(8) 0.2449(8) 0.2275(3)
N4 N -0.0382(8) 0.7551(8) 0.2275(3)
N5 N -0.2376(8) 0.5589(8) 0.2808(3)
N5 N 0.2376(8) 0.4411(8) 0.2808(3)
Ag1 Ag 1.0000 0.5000 0.40295(3)
N1 N 1.0000 0.5000 0.3465(3)
N3 N 1.1329(6) 0.4933(8) 0.4387(2)
N4 N 1.2449(8) 0.5382(8) 0.4775(3)
N5 N 1.2624(8) 0.4411(8) 0.4692(3)
C1 C 1.0293(10) 0.5711(10) 0.3250(3)
C2 C 1.0738(12) 0.6682(11) 0.3358(4)
C3 C 1.1687(9) 0.5632(10) 0.4590(3)
C4 C 1.1935(10) 0.4185(10) 0.4462(3)
C5 C 1.1913(11) 0.3158(12) 0.4304(4)
C6 C 1.1259(12) 0.6662(11) 0.4606(4)
F1 F 1.1628(9) 0.6554(8) 0.3482(3)
F2 F 1.0221(9) 0.7087(6) 0.3602(2)
F3 F 1.0878(10) 0.7290(7) 0.3110(2)
F4 F 1.2793(8) 0.2875(9) 0.4208(4)
F5 F 1.1701(12) 0.2463(8) 0.4536(3)
F6 F 1.1246(8) 0.3054(7) 0.4090(3)
F7 F 1.1101(14) 0.7031(8) 0.4315(3)
F8 F 1.0319(8) 0.6630(9) 0.4727(4)
F9 F 1.1740(7) 0.7279(7) 0.4791(3)
C1 C 0.9707(10) 0.4289(10) 0.3250(3)
C2 C 0.9262(12) 0.3318(11) 0.3358(4)
F1 F 0.8372(9) 0.3446(8) 0.3482(3)
F2 F 0.9779(9) 0.2913(6) 0.3602(2)
F3 F 0.9122(10) 0.2710(7) 0.3110(2)
N3 N 0.8671(6) 0.5067(8) 0.4387(2)
N5 N 0.7376(8) 0.5589(8) 0.4692(3)
C3 C 0.8313(9) 0.4368(10) 0.4590(3)
C4 C 0.8065(10) 0.5815(10) 0.4462(3)
C5 C 0.8087(11) 0.6842(12) 0.4304(4)
C6 C 0.8741(12) 0.3338(11) 0.4606(4)
F4 F 0.7207(8) 0.7125(9) 0.4208(4)
F5 F 0.8299(12) 0.7537(8) 0.4536(3)
F6 F 0.8754(8) 0.6946(7) 0.4090(3)
F7 F 0.8899(14) 0.2969(8) 0.4315(3)
F8 F 0.9681(8) 0.3370(9) 0.4727(4)
F9 F 0.8260(7) 0.2721(7) 0.4791(3)
Ag2 Ag 1.36153(7) 0.61705(7) 0.50538(3)
Ag2 Ag 1.38295(7) 0.36153(7) 0.49462(3)
N4 N 1.0382(8) 0.2449(8) 0.2275(3)
N4 N 0.9618(8) 0.7551(8) 0.2275(3)
N5 N 0.7624(8) 0.5589(8) 0.2808(3)
N5 N 1.2376(8) 0.4411(8) 0.2808(3)
Ag1 Ag 0.0000 0.0000 0.15295(3)
Ag2 Ag 0.13847(7) -0.11705(7) 0.00538(3)
N1 N 0.0000 0.0000 0.0965(3)
N2 N 0.0484(7) 0.0186(8) 0.0425(3)
N3 N -0.0067(8) 0.1329(6) 0.1887(2)
C1 C 0.0711(10) 0.0293(10) 0.0750(3)
C2 C 0.1682(11) 0.0738(12) 0.0858(4)
C3 C 0.0632(10) 0.1687(9) 0.2090(3)
C4 C -0.0815(10) 0.1935(10) 0.1962(3)
C5 C -0.1842(12) 0.1913(11) 0.1804(4)
C6 C 0.1662(11) 0.1259(12) 0.2106(4)
F1 F 0.1554(8) 0.1628(9) 0.0982(3)
F2 F 0.2087(6) 0.0221(9) 0.1102(2)
F3 F 0.2290(7) 0.0878(10) 0.0610(2)
F4 F -0.2125(9) 0.2793(8) 0.1708(4)
F5 F -0.2537(8) 0.1701(12) 0.2036(3)
F6 F -0.1946(7) 0.1246(8) 0.1590(3)
F7 F 0.2031(8) 0.1101(14) 0.1815(3)
F8 F 0.1630(9) 0.0319(8) 0.2227(4)
F9 F 0.2279(7) 0.1740(7) 0.2291(3)
N2 N -0.0484(7) -0.0186(8) 0.0425(3)
C1 C -0.0711(10) -0.0293(10) 0.0750(3)
C2 C -0.1682(11) -0.0738(12) 0.0858(4)
F1 F -0.1554(8) -0.1628(9) 0.0982(3)
F2 F -0.2087(6) -0.0221(9) 0.1102(2)
F3 F -0.2290(7) -0.0878(10) 0.0610(2)
N3 N 0.0067(8) -0.1329(6) 0.1887(2)
N4 N -0.0382(8) -0.2449(8) 0.2275(3)
N5 N 0.0589(8) -0.2624(8) 0.2192(3)
C3 C -0.0632(10) -0.1687(9) 0.2090(3)
C4 C 0.0815(10) -0.1935(10) 0.1962(3)
C5 C 0.1842(12) -0.1913(11) 0.1804(4)
C6 C -0.1662(11) -0.1259(12) 0.2106(4)
F4 F 0.2125(9) -0.2793(8) 0.1708(4)
F5 F 0.2537(8) -0.1701(12) 0.2036(3)
F6 F 0.1946(7) -0.1246(8) 0.1590(3)
F7 F -0.2031(8) -0.1101(14) 0.1815(3)
F8 F -0.1630(9) -0.0319(8) 0.2227(4)
F9 F -0.2279(7) -0.1740(7) 0.2291(3)
Ag2 Ag -0.11705(7) -0.36153(7) 0.25538(3)
Ag2 Ag -0.11705(7) -0.13847(7) -0.00538(3)
Ag2 Ag 0.13847(7) -0.38295(7) 0.24462(3)
N2 N -0.0186(8) 0.0484(7) -0.0425(3)
N2 N 0.0186(8) -0.0484(7) -0.0425(3)
N4 N -0.2551(8) 0.0382(8) -0.0225(3)
N4 N 0.2551(8) -0.0382(8) -0.0225(3)
N5 N 0.0589(8) -0.2376(8) 0.0308(3)
Ag1 Ag 0.0000 1.0000 0.15295(3)
N1 N 0.0000 1.0000 0.0965(3)
N2 N 0.0484(7) 1.0186(8) 0.0425(3)
N3 N -0.0067(8) 1.1329(6) 0.1887(2)
N4 N 0.0382(8) 1.2449(8) 0.2275(3)
N5 N -0.0589(8) 1.2624(8) 0.2192(3)
C1 C 0.0711(10) 1.0293(10) 0.0750(3)
C2 C 0.1682(11) 1.0738(12) 0.0858(4)
C3 C 0.0632(10) 1.1687(9) 0.2090(3)
C4 C -0.0815(10) 1.1935(10) 0.1962(3)
C5 C -0.1842(12) 1.1913(11) 0.1804(4)
C6 C 0.1662(11) 1.1259(12) 0.2106(4)
F1 F 0.1554(8) 1.1628(9) 0.0982(3)
F2 F 0.2087(6) 1.0221(9) 0.1102(2)
F3 F 0.2290(7) 1.0878(10) 0.0610(2)
F4 F -0.2125(9) 1.2793(8) 0.1708(4)
F5 F -0.2537(8) 1.1701(12) 0.2036(3)
F6 F -0.1946(7) 1.1246(8) 0.1590(3)
F7 F 0.2031(8) 1.1101(14) 0.1815(3)
F8 F 0.1630(9) 1.0319(8) 0.2227(4)
F9 F 0.2279(7) 1.1740(7) 0.2291(3)
N2 N -0.0484(7) 0.9814(8) 0.0425(3)
C1 C -0.0711(10) 0.9707(10) 0.0750(3)
C2 C -0.1682(11) 0.9262(12) 0.0858(4)
F1 F -0.1554(8) 0.8372(9) 0.0982(3)
F2 F -0.2087(6) 0.9779(9) 0.1102(2)
F3 F -0.2290(7) 0.9122(10) 0.0610(2)
Ag2 Ag -0.13847(7) 1.11705(7) 0.00538(3)
N3 N 0.0067(8) 0.8671(6) 0.1887(2)
C3 C -0.0632(10) 0.8313(9) 0.2090(3)
C4 C 0.0815(10) 0.8065(10) 0.1962(3)
C5 C 0.1842(12) 0.8087(11) 0.1804(4)
C6 C -0.1662(11) 0.8741(12) 0.2106(4)
F4 F 0.2125(9) 0.7207(8) 0.1708(4)
F5 F 0.2537(8) 0.8299(12) 0.2036(3)
F6 F 0.1946(7) 0.8754(8) 0.1590(3)
F7 F -0.2031(8) 0.8899(14) 0.1815(3)
F8 F -0.1630(9) 0.9681(8) 0.2227(4)
F9 F -0.2279(7) 0.8260(7) 0.2291(3)
Ag2 Ag 0.11705(7) 1.36153(7) 0.25538(3)
Ag2 Ag 0.11705(7) 1.13847(7) -0.00538(3)
Ag2 Ag -0.13847(7) 1.38295(7) 0.24462(3)
N2 N -0.0186(8) 1.0484(7) -0.0425(3)
N2 N 0.0186(8) 0.9516(7) -0.0425(3)
N4 N -0.2551(8) 1.0382(8) -0.0225(3)
N4 N 0.2551(8) 0.9618(8) -0.0225(3)
N5 N -0.0589(8) 1.2376(8) 0.0308(3)
Ag1 Ag 1.0000 0.0000 0.15295(3)
Ag2 Ag 1.13847(7) -0.11705(7) 0.00538(3)
N1 N 1.0000 0.0000 0.0965(3)
N2 N 1.0484(7) 0.0186(8) 0.0425(3)
N3 N 0.9933(8) 0.1329(6) 0.1887(2)
C1 C 1.0711(10) 0.0293(10) 0.0750(3)
C2 C 1.1682(11) 0.0738(12) 0.0858(4)
C3 C 1.0632(10) 0.1687(9) 0.2090(3)
C4 C 0.9185(10) 0.1935(10) 0.1962(3)
C5 C 0.8158(12) 0.1913(11) 0.1804(4)
C6 C 1.1662(11) 0.1259(12) 0.2106(4)
F1 F 1.1554(8) 0.1628(9) 0.0982(3)
F2 F 1.2087(6) 0.0221(9) 0.1102(2)
F3 F 1.2290(7) 0.0878(10) 0.0610(2)
F4 F 0.7875(9) 0.2793(8) 0.1708(4)
F5 F 0.7463(8) 0.1701(12) 0.2036(3)
F6 F 0.8054(7) 0.1246(8) 0.1590(3)
F7 F 1.2031(8) 0.1101(14) 0.1815(3)
F8 F 1.1630(9) 0.0319(8) 0.2227(4)
F9 F 1.2279(7) 0.1740(7) 0.2291(3)
N2 N 0.9516(7) -0.0186(8) 0.0425(3)
C1 C 0.9289(10) -0.0293(10) 0.0750(3)
C2 C 0.8318(11) -0.0738(12) 0.0858(4)
F1 F 0.8446(8) -0.1628(9) 0.0982(3)
F2 F 0.7913(6) -0.0221(9) 0.1102(2)
F3 F 0.7710(7) -0.0878(10) 0.0610(2)
N3 N 1.0067(8) -0.1329(6) 0.1887(2)
N4 N 0.9618(8) -0.2449(8) 0.2275(3)
N5 N 1.0589(8) -0.2624(8) 0.2192(3)
C3 C 0.9368(10) -0.1687(9) 0.2090(3)
C4 C 1.0815(10) -0.1935(10) 0.1962(3)
C5 C 1.1842(12) -0.1913(11) 0.1804(4)
C6 C 0.8338(11) -0.1259(12) 0.2106(4)
F4 F 1.2125(9) -0.2793(8) 0.1708(4)
F5 F 1.2537(8) -0.1701(12) 0.2036(3)
F6 F 1.1946(7) -0.1246(8) 0.1590(3)
F7 F 0.7969(8) -0.1101(14) 0.1815(3)
F8 F 0.8370(9) -0.0319(8) 0.2227(4)
F9 F 0.7721(7) -0.1740(7) 0.2291(3)
Ag2 Ag 0.88295(7) -0.36153(7) 0.25538(3)
Ag2 Ag 0.88295(7) -0.13847(7) -0.00538(3)
Ag2 Ag 1.13847(7) -0.38295(7) 0.24462(3)
N2 N 0.9814(8) 0.0484(7) -0.0425(3)
N2 N 1.0186(8) -0.0484(7) -0.0425(3)
N4 N 0.7449(8) 0.0382(8) -0.0225(3)
N4 N 1.2551(8) -0.0382(8) -0.0225(3)
N5 N 1.0589(8) -0.2376(8) 0.0308(3)
Ag1 Ag 1.0000 1.0000 0.15295(3)
N1 N 1.0000 1.0000 0.0965(3)
N2 N 1.0484(7) 1.0186(8) 0.0425(3)
N3 N 0.9933(8) 1.1329(6) 0.1887(2)
N4 N 1.0382(8) 1.2449(8) 0.2275(3)
N5 N 0.9411(8) 1.2624(8) 0.2192(3)
C1 C 1.0711(10) 1.0293(10) 0.0750(3)
C2 C 1.1682(11) 1.0738(12) 0.0858(4)
C3 C 1.0632(10) 1.1687(9) 0.2090(3)
C4 C 0.9185(10) 1.1935(10) 0.1962(3)
C5 C 0.8158(12) 1.1913(11) 0.1804(4)
C6 C 1.1662(11) 1.1259(12) 0.2106(4)
F1 F 1.1554(8) 1.1628(9) 0.0982(3)
F2 F 1.2087(6) 1.0221(9) 0.1102(2)
F3 F 1.2290(7) 1.0878(10) 0.0610(2)
F4 F 0.7875(9) 1.2793(8) 0.1708(4)
F5 F 0.7463(8) 1.1701(12) 0.2036(3)
F6 F 0.8054(7) 1.1246(8) 0.1590(3)
F7 F 1.2031(8) 1.1101(14) 0.1815(3)
F8 F 1.1630(9) 1.0319(8) 0.2227(4)
F9 F 1.2279(7) 1.1740(7) 0.2291(3)
N2 N 0.9516(7) 0.9814(8) 0.0425(3)
C1 C 0.9289(10) 0.9707(10) 0.0750(3)
C2 C 0.8318(11) 0.9262(12) 0.0858(4)
F1 F 0.8446(8) 0.8372(9) 0.0982(3)
F2 F 0.7913(6) 0.9779(9) 0.1102(2)
F3 F 0.7710(7) 0.9122(10) 0.0610(2)
Ag2 Ag 0.86153(7) 1.11705(7) 0.00538(3)
N3 N 1.0067(8) 0.8671(6) 0.1887(2)
C3 C 0.9368(10) 0.8313(9) 0.2090(3)
C4 C 1.0815(10) 0.8065(10) 0.1962(3)
C5 C 1.1842(12) 0.8087(11) 0.1804(4)
C6 C 0.8338(11) 0.8741(12) 0.2106(4)
F4 F 1.2125(9) 0.7207(8) 0.1708(4)
F5 F 1.2537(8) 0.8299(12) 0.2036(3)
F6 F 1.1946(7) 0.8754(8) 0.1590(3)
F7 F 0.7969(8) 0.8899(14) 0.1815(3)
F8 F 0.8370(9) 0.9681(8) 0.2227(4)
F9 F 0.7721(7) 0.8260(7) 0.2291(3)
Ag2 Ag 1.11705(7) 1.36153(7) 0.25538(3)
Ag2 Ag 1.11705(7) 1.13847(7) -0.00538(3)
Ag2 Ag 0.86153(7) 1.38295(7) 0.24462(3)
N2 N 0.9814(8) 1.0484(7) -0.0425(3)
N2 N 1.0186(8) 0.9516(7) -0.0425(3)
N4 N 0.7449(8) 1.0382(8) -0.0225(3)
N4 N 1.2551(8) 0.9618(8) -0.0225(3)
N5 N 0.9411(8) 1.2376(8) 0.0308(3)
Ag1 Ag 0.5000 0.5000 0.34705(3)
N1 N 0.5000 0.5000 0.4035(3)
N3 N 0.3671(6) 0.4933(8) 0.3113(2)
C1 C 0.4707(10) 0.5711(10) 0.4250(3)
C2 C 0.4262(12) 0.6682(11) 0.4142(4)
C3 C 0.3313(9) 0.5632(10) 0.2910(3)
C4 C 0.3065(10) 0.4185(10) 0.3038(3)
C5 C 0.3087(11) 0.3158(12) 0.3196(4)
C6 C 0.3741(12) 0.6662(11) 0.2894(4)
F1 F 0.3372(9) 0.6554(8) 0.4018(3)
F2 F 0.4779(9) 0.7087(6) 0.3898(2)
F3 F 0.4122(10) 0.7290(7) 0.4390(2)
F4 F 0.2207(8) 0.2875(9) 0.3292(4)
F5 F 0.3299(12) 0.2463(8) 0.2964(3)
F6 F 0.3754(8) 0.3054(7) 0.3410(3)
F7 F 0.3899(14) 0.7031(8) 0.3185(3)
F8 F 0.4681(8) 0.6630(9) 0.2773(4)
F9 F 0.3260(7) 0.7279(7) 0.2709(3)
C1 C 0.5293(10) 0.4289(10) 0.4250(3)
C2 C 0.5738(12) 0.3318(11) 0.4142(4)
F1 F 0.6628(9) 0.3446(8) 0.4018(3)
F2 F 0.5221(9) 0.2913(6) 0.3898(2)
F3 F 0.5878(10) 0.2710(7) 0.4390(2)
N3 N 0.6329(6) 0.5067(8) 0.3113(2)
C3 C 0.6687(9) 0.4368(10) 0.2910(3)
C4 C 0.6935(10) 0.5815(10) 0.3038(3)
C5 C 0.6913(11) 0.6842(12) 0.3196(4)
C6 C 0.6259(12) 0.3338(11) 0.2894(4)
F4 F 0.7793(8) 0.7125(9) 0.3292(4)
F5 F 0.6701(12) 0.7537(8) 0.2964(3)
F6 F 0.6246(8) 0.6946(7) 0.3410(3)
F7 F 0.6101(14) 0.2969(8) 0.3185(3)
F8 F 0.5319(8) 0.3370(9) 0.2773(4)
F9 F 0.6740(7) 0.2721(7) 0.2709(3)

#END
