data_crystal
 
_cell_length_a    14.81740
_cell_length_b    14.81740
_cell_length_c    14.81740
_cell_angle_alpha 60.00000
_cell_angle_beta  60.00000
_cell_angle_gamma 60.00000
 
_symmetry_space_group_name_Hall 'P 1'
_symmetry_space_group_name_H-M  'P 1'
 
loop_
_symmetry_equiv_pos_as_xyz
 'x,y,z' 
 
loop_
_atom_site_label
_atom_site_type_symbol
_atom_site_fract_x
_atom_site_fract_y
_atom_site_fract_z
_atom_site_charge
Zr         Zr      0.37630   0.37630   0.62370   0.0000000000
Zr         Zr      0.62370   0.62370   0.37630   0.0000000000
Zr         Zr      0.37630   0.62370   0.62370   0.0000000000
Zr         Zr      0.62370   0.37630   0.37630   0.0000000000
Zr         Zr      0.37630   0.62370   0.37630   0.0000000000
Zr         Zr      0.62370   0.37630   0.62370   0.0000000000
C          C       0.05230   0.57750   0.94770   0.0000000000
C          C       0.57750   0.05230   0.42250   0.0000000000
C          C       0.94770   0.42250   0.05230   0.0000000000
C          C       0.42250   0.94770   0.57750   0.0000000000
C          C       0.05230   0.94770   0.42250   0.0000000000
C          C       0.57750   0.42250   0.94770   0.0000000000
C          C       0.94770   0.05230   0.57750   0.0000000000
C          C       0.42250   0.57750   0.05230   0.0000000000
C          C       0.05230   0.42250   0.57750   0.0000000000
C          C       0.57750   0.94770   0.05230   0.0000000000
C          C       0.94770   0.57750   0.42250   0.0000000000
C          C       0.42250   0.05230   0.94770   0.0000000000
C          C       0.42250   0.94770   0.05230   0.0000000000
C          C       0.94770   0.42250   0.57750   0.0000000000
C          C       0.57750   0.05230   0.94770   0.0000000000
C          C       0.05230   0.57750   0.42250   0.0000000000
C          C       0.05230   0.94770   0.57750   0.0000000000
C          C       0.57750   0.42250   0.05230   0.0000000000
C          C       0.94770   0.05230   0.42250   0.0000000000
C          C       0.42250   0.57750   0.94770   0.0000000000
C          C       0.57750   0.94770   0.42250   0.0000000000
C          C       0.05230   0.42250   0.94770   0.0000000000
C          C       0.42250   0.05230   0.57750   0.0000000000
C          C       0.94770   0.57750   0.05230   0.0000000000
C          C       0.18740   0.50000   0.81260   0.0000000000
C          C       0.09340   0.50000   0.90660   0.0000000000
C          C       0.50000   0.18740   0.50000   0.0000000000
C          C       0.50000   0.09340   0.50000   0.0000000000
C          C       0.81260   0.50000   0.18740   0.0000000000
C          C       0.90660   0.50000   0.09340   0.0000000000
C          C       0.50000   0.81260   0.50000   0.0000000000
C          C       0.50000   0.90660   0.50000   0.0000000000
C          C       0.18740   0.81260   0.50000   0.0000000000
C          C       0.09340   0.90660   0.50000   0.0000000000
C          C       0.50000   0.50000   0.81260   0.0000000000
C          C       0.50000   0.50000   0.90660   0.0000000000
C          C       0.81260   0.18740   0.50000   0.0000000000
C          C       0.90660   0.09340   0.50000   0.0000000000
C          C       0.50000   0.50000   0.18740   0.0000000000
C          C       0.50000   0.50000   0.09340   0.0000000000
C          C       0.18740   0.50000   0.50000   0.0000000000
C          C       0.09340   0.50000   0.50000   0.0000000000
C          C       0.50000   0.81260   0.18740   0.0000000000
C          C       0.50000   0.90660   0.09340   0.0000000000
C          C       0.81260   0.50000   0.50000   0.0000000000
C          C       0.90660   0.50000   0.50000   0.0000000000
C          C       0.50000   0.18740   0.81260   0.0000000000
C          C       0.50000   0.09340   0.90660   0.0000000000
O          O       0.28640   0.57120   0.57120   0.0000000000
O          O       0.57120   0.28640   0.57120   0.0000000000
O          O       0.57120   0.57120   0.28640   0.0000000000
O          O       0.57120   0.57120   0.57120   0.0000000000
O          O       0.42880   0.71360   0.42880   0.0000000000
O          O       0.71360   0.42880   0.42880   0.0000000000
O          O       0.42880   0.42880   0.71360   0.0000000000
O          O       0.42880   0.42880   0.42880   0.0000000000
O          O       0.22690   0.42450   0.77310   0.0000000000
O          O       0.42450   0.22690   0.57550   0.0000000000
O          O       0.77310   0.57550   0.22690   0.0000000000
O          O       0.57550   0.77310   0.42450   0.0000000000
O          O       0.22690   0.77310   0.57550   0.0000000000
O          O       0.42450   0.57550   0.77310   0.0000000000
O          O       0.77310   0.22690   0.42450   0.0000000000
O          O       0.57550   0.42450   0.22690   0.0000000000
O          O       0.22690   0.57550   0.42450   0.0000000000
O          O       0.42450   0.77310   0.22690   0.0000000000
O          O       0.77310   0.42450   0.57550   0.0000000000
O          O       0.57550   0.22690   0.77310   0.0000000000
O          O       0.57550   0.77310   0.22690   0.0000000000
O          O       0.77310   0.57550   0.42450   0.0000000000
O          O       0.42450   0.22690   0.77310   0.0000000000
O          O       0.22690   0.42450   0.57550   0.0000000000
O          O       0.22690   0.77310   0.42450   0.0000000000
O          O       0.42450   0.57550   0.22690   0.0000000000
O          O       0.77310   0.22690   0.57550   0.0000000000
O          O       0.57550   0.42450   0.77310   0.0000000000
O          O       0.42418   0.77162   0.57690   0.0000000000
O          O       0.22690   0.57550   0.77310   0.0000000000
O          O       0.57550   0.22690   0.42450   0.0000000000
O          O       0.77310   0.42450   0.22690   0.0000000000
H          H       0.09077   0.64413   0.90923   0.0000000000
H          H       0.64413   0.09077   0.35587   0.0000000000
H          H       0.90923   0.35587   0.09077   0.0000000000
H          H       0.35587   0.90923   0.64413   0.0000000000
H          H       0.09077   0.90923   0.35587   0.0000000000
H          H       0.64413   0.35587   0.90923   0.0000000000
H          H       0.90923   0.09077   0.64413   0.0000000000
H          H       0.35587   0.64413   0.09077   0.0000000000
H          H       0.09077   0.35587   0.64413   0.0000000000
H          H       0.64413   0.90923   0.09077   0.0000000000
H          H       0.90923   0.64413   0.35587   0.0000000000
H          H       0.35587   0.09077   0.90923   0.0000000000
H          H       0.35587   0.90923   0.09077   0.0000000000
H          H       0.90923   0.35587   0.64413   0.0000000000
H          H       0.64413   0.09077   0.90923   0.0000000000
H          H       0.09077   0.64413   0.35587   0.0000000000
H          H       0.09077   0.90923   0.64413   0.0000000000
H          H       0.64413   0.35587   0.09077   0.0000000000
H          H       0.90923   0.09077   0.35587   0.0000000000
H          H       0.35587   0.64413   0.90923   0.0000000000
H          H       0.64413   0.90923   0.35587   0.0000000000
H          H       0.09077   0.35587   0.90923   0.0000000000
H          H       0.35587   0.09077   0.64413   0.0000000000
H          H       0.90923   0.64413   0.09077   0.0000000000
H          H       0.21263   0.57140   0.60633   0.0000000000
H          H       0.61455   0.21196   0.58862   0.0000000000
H          H       0.61086   0.59818   0.57103   0.0000000000
H          H       0.59613   0.59706   0.21485   0.0000000000
