data_crystal

_cell_length_a    17.38840
_cell_length_b    17.38840
_cell_length_c    17.38840
_cell_angle_alpha 65.35440
_cell_angle_beta  65.35440
_cell_angle_gamma 65.35440

_symmetry_space_group_name_Hall 'P 1'
_symmetry_space_group_name_H-M  'P 1'

loop_
_symmetry_equiv_pos_as_xyz
 'x,y,z'

loop_
_atom_site_label
_atom_site_type_symbol
_atom_site_fract_x
_atom_site_fract_y
_atom_site_fract_z
Cu         Cu      0.57302   0.00388   0.00388
Cu         Cu      0.00388   0.57302   0.00388
Cu         Cu      0.00388   0.00388   0.57302
Cu         Cu      0.99612   0.42698   0.99612
Cu         Cu      0.42698   0.99612   0.99612
Cu         Cu      0.99612   0.99612   0.42698
H          H       0.50640   0.72100   0.02020
H          H       0.02020   0.50640   0.72100
H          H       0.72100   0.02020   0.50640
H          H       0.27900   0.49360   0.97980
H          H       0.49360   0.97980   0.27900
H          H       0.97980   0.27900   0.49360
H          H       0.49360   0.27900   0.97980
H          H       0.97980   0.49360   0.27900
H          H       0.27900   0.97980   0.49360
H          H       0.72100   0.50640   0.02020
H          H       0.50640   0.02020   0.72100
H          H       0.02020   0.72100   0.50640
H          H       0.73050   0.73050   0.02780
H          H       0.02780   0.73050   0.73050
H          H       0.73050   0.02780   0.73050
H          H       0.26950   0.26950   0.97220
H          H       0.26950   0.97220   0.26950
H          H       0.97220   0.26950   0.26950
C          C       0.61175   0.74055   0.02475
C          C       0.56483   0.69393   0.02133
C          C       0.56902   0.83642   0.02102
C          C       0.02475   0.61175   0.74055
C          C       0.02133   0.56483   0.69393
C          C       0.02102   0.56902   0.83642
C          C       0.74055   0.02475   0.61175
C          C       0.69393   0.02133   0.56483
C          C       0.83642   0.02102   0.56902
C          C       0.25945   0.38825   0.97525
C          C       0.30607   0.43517   0.97867
C          C       0.16358   0.43098   0.97898
C          C       0.38825   0.97525   0.25945
C          C       0.43517   0.97867   0.30607
C          C       0.43098   0.97898   0.16358
C          C       0.97525   0.25945   0.38825
C          C       0.97867   0.30607   0.43517
C          C       0.97898   0.16358   0.43098
C          C       0.38825   0.25945   0.97525
C          C       0.43517   0.30607   0.97867
C          C       0.43098   0.16358   0.97898
C          C       0.97525   0.38825   0.25945
C          C       0.97867   0.43517   0.30607
C          C       0.97898   0.43098   0.16358
C          C       0.25945   0.97525   0.38825
C          C       0.30607   0.97867   0.43517
C          C       0.16358   0.97898   0.43098
C          C       0.74055   0.61175   0.02475
C          C       0.69393   0.56483   0.02133
C          C       0.83642   0.56902   0.02102
C          C       0.61175   0.02475   0.74055
C          C       0.56483   0.02133   0.69393
C          C       0.56902   0.02102   0.83642
C          C       0.02475   0.74055   0.61175
C          C       0.02133   0.69393   0.56483
C          C       0.02102   0.83642   0.56902
C          C       0.56020   0.56020   0.01410
C          C       0.52260   0.52260   0.00470
C          C       0.69922   0.69922   0.02607
C          C       0.60640   0.60640   0.01965
C          C       0.01410   0.56020   0.56020
C          C       0.00470   0.52260   0.52260
C          C       0.02607   0.69922   0.69922
C          C       0.01965   0.60640   0.60640
C          C       0.56020   0.01410   0.56020
C          C       0.52260   0.00470   0.52260
C          C       0.69922   0.02607   0.69922
C          C       0.60640   0.01965   0.60640
C          C       0.43980   0.43980   0.98590
C          C       0.47740   0.47740   0.99530
C          C       0.30078   0.30078   0.97393
C          C       0.39360   0.39360   0.98035
C          C       0.43980   0.98590   0.43980
C          C       0.47740   0.99530   0.47740
C          C       0.30078   0.97393   0.30078
C          C       0.39360   0.98035   0.39360
C          C       0.98590   0.43980   0.43980
C          C       0.99530   0.47740   0.47740
C          C       0.97393   0.30078   0.30078
C          C       0.98035   0.39360   0.39360
O          O       0.61482   0.87616   0.02134
O          O       0.49165   0.86961   0.01558
O          O       0.02134   0.61482   0.87616
O          O       0.01558   0.49165   0.86961
O          O       0.87616   0.02134   0.61482
O          O       0.86961   0.01558   0.49165
O          O       0.12384   0.38518   0.97866
O          O       0.13039   0.50835   0.98442
O          O       0.38518   0.97866   0.12384
O          O       0.50835   0.98442   0.13039
O          O       0.97866   0.12384   0.38518
O          O       0.98442   0.13039   0.50835
O          O       0.38518   0.12384   0.97866
O          O       0.50835   0.13039   0.98442
O          O       0.97866   0.38518   0.12384
O          O       0.98442   0.50835   0.13039
O          O       0.12384   0.97866   0.38518
O          O       0.13039   0.98442   0.50835
O          O       0.87616   0.61482   0.02134
O          O       0.86961   0.49165   0.01558
O          O       0.61482   0.02134   0.87616
O          O       0.49165   0.01558   0.86961
O          O       0.02134   0.87616   0.61482
O          O       0.01558   0.86961   0.49165
