
#######################################################################
#
#                 Cambridge Crystallographic Data Centre
#                                CCDC 
#
#######################################################################
#
# If this CIF has been generated from an entry in the Cambridge 
# Structural Database, then it will include bibliographic, chemical, 
# crystal, experimental, refinement or atomic coordinate data resulting 
# from the CCDC's data processing and validation procedures.
#
#######################################################################

data_mof
_symmetry_cell_setting           cubic
_symmetry_space_group_name_H-M   'I a -3 d'
_symmetry_Int_Tables_number      230
_space_group_name_Hall           '-I 4bd 2c 3'
loop_
_symmetry_equiv_pos_site_id
_symmetry_equiv_pos_as_xyz
1 x,y,z
2 1/2-x,-y,1/2+z
3 -x,1/2+y,1/2-z
4 1/2+x,1/2-y,-z
5 z,x,y
6 1/2+z,1/2-x,-y
7 1/2-z,-x,1/2+y
8 -z,1/2+x,1/2-y
9 y,z,x
10 -y,1/2+z,1/2-x
11 1/2+y,1/2-z,-x
12 1/2-y,-z,1/2+x
13 3/4+y,1/4+x,1/4-z
14 3/4-y,3/4-x,3/4-z
15 1/4+y,1/4-x,3/4+z
16 1/4-y,3/4+x,1/4+z
17 3/4+x,1/4+z,1/4-y
18 1/4-x,3/4+z,1/4+y
19 3/4-x,3/4-z,3/4-y
20 1/4+x,1/4-z,3/4+y
21 3/4+z,1/4+y,1/4-x
22 1/4+z,1/4-y,3/4+x
23 1/4-z,3/4+y,1/4+x
24 3/4-z,3/4-y,3/4-x
25 1/2+x,1/2+y,1/2+z
26 -x,1/2-y,z
27 1/2-x,y,-z
28 x,-y,1/2-z
29 1/2+z,1/2+x,1/2+y
30 z,-x,1/2-y
31 -z,1/2-x,y
32 1/2-z,x,-y
33 1/2+y,1/2+z,1/2+x
34 1/2-y,z,-x
35 y,-z,1/2-x
36 -y,1/2-z,x
37 1/4+y,3/4+x,3/4-z
38 1/4-y,1/4-x,1/4-z
39 3/4+y,3/4-x,1/4+z
40 3/4-y,1/4+x,3/4+z
41 1/4+x,3/4+z,3/4-y
42 3/4-x,1/4+z,3/4+y
43 1/4-x,1/4-z,1/4-y
44 3/4+x,3/4-z,1/4+y
45 1/4+z,3/4+y,3/4-x
46 3/4+z,3/4-y,1/4+x
47 3/4-z,1/4+y,3/4+x
48 1/4-z,1/4-y,1/4-x
49 -x,-y,-z
50 1/2+x,y,1/2-z
51 x,1/2-y,1/2+z
52 1/2-x,1/2+y,z
53 -z,-x,-y
54 1/2-z,1/2+x,y
55 1/2+z,x,1/2-y
56 z,1/2-x,1/2+y
57 -y,-z,-x
58 y,1/2-z,1/2+x
59 1/2-y,1/2+z,x
60 1/2+y,z,1/2-x
61 1/4-y,3/4-x,3/4+z
62 1/4+y,1/4+x,1/4+z
63 3/4-y,3/4+x,1/4-z
64 3/4+y,1/4-x,3/4-z
65 1/4-x,3/4-z,3/4+y
66 3/4+x,1/4-z,3/4-y
67 1/4+x,1/4+z,1/4+y
68 3/4-x,3/4+z,1/4-y
69 1/4-z,3/4-y,3/4+x
70 3/4-z,3/4+y,1/4-x
71 3/4+z,1/4-y,3/4-x
72 1/4+z,1/4+y,1/4+x
73 1/2-x,1/2-y,1/2-z
74 x,1/2+y,-z
75 1/2+x,-y,z
76 -x,y,1/2+z
77 1/2-z,1/2-x,1/2-y
78 -z,x,1/2+y
79 z,1/2+x,-y
80 1/2+z,-x,y
81 1/2-y,1/2-z,1/2-x
82 1/2+y,-z,x
83 -y,z,1/2+x
84 y,1/2+z,-x
85 3/4-y,1/4-x,1/4+z
86 3/4+y,3/4+x,3/4+z
87 1/4-y,1/4+x,3/4-z
88 1/4+y,3/4-x,1/4-z
89 3/4-x,1/4-z,1/4+y
90 1/4+x,3/4-z,1/4-y
91 3/4+x,3/4+z,3/4+y
92 1/4-x,1/4+z,3/4-y
93 3/4-z,1/4-y,1/4+x
94 1/4-z,1/4+y,3/4-x
95 1/4+z,3/4-y,1/4-x
96 3/4+z,3/4+y,3/4+x
_cell_length_a                   69.12(2)
_cell_length_b                   69.12(2)
_cell_length_c                   69.12(2)
_cell_angle_alpha                90.00
_cell_angle_beta                 90.00
_cell_angle_gamma                90.00
_cell_volume                     330226
loop_
_atom_site_label
_atom_site_type_symbol
_atom_site_fract_x
_atom_site_fract_y
_atom_site_fract_z
Zn1 Zn 0.48946(2) 0.22986(2) 0.18967(2)
Zn2 Zn 0.436884(18) 0.224604(18) 0.12422(2)
N1 N 0.45012(12) 0.24370(14) 0.14342(14)
C1 C 0.45954(14) 0.23611(17) 0.15833(16)
H1 H 0.4566 0.2233 0.1613
N2 N 0.47283(12) 0.24486(13) 0.16962(12)
C2 C 0.47555(16) 0.26318(16) 0.16400(18)
C3 C 0.46633(16) 0.27318(17) 0.14825(18)
C4 C 0.45317(19) 0.26317(19) 0.13844(19)
N3 N 0.47379(13) 0.29166(12) 0.14588(15)
C5 C 0.48642(17) 0.29169(18) 0.16084(17)
H5 H 0.4937 0.3027 0.1636
N4 N 0.48835(13) 0.27558(14) 0.17179(14)
N5 N 0.44332(13) 0.27191(12) 0.12346(15)
H10A H 0.4457 0.2838 0.1205
H10B H 0.4348 0.2655 0.1171
O1 O 0.5000 0.2500 0.20618(13)
C11 C 0.4709(2) 0.1973(2) 0.1955(2)
O11A O 0.47684(16) 0.21104(14) 0.20520(17)
O11B O 0.47244(17) 0.19581(15) 0.17792(16)
C12 C 0.45977(17) 0.18176(18) 0.2061(2)
C13 C 0.4512(2) 0.16717(18) 0.19656(19)
H13 H 0.4518 0.1668 0.1831
C14 C 0.4412(2) 0.15233(19) 0.20649(18)
H14 H 0.4356 0.1422 0.1995
C15 C 0.4395(2) 0.15267(18) 0.22581(19)
C16 C 0.4471(3) 0.1681(2) 0.2348(2)
H16 H 0.4447 0.1697 0.2480
C17 C 0.4584(3) 0.1821(2) 0.2254(2)
H17 H 0.4649 0.1916 0.2325
C21 C 0.3988(2) 0.0930(2) 0.2678(2)
O21A O 0.38807(12) 0.08232(10) 0.25832(11)
O21B O 0.3996(2) 0.09167(18) 0.28525(14)
C22 C 0.40962(17) 0.10843(17) 0.25668(19)
C23 C 0.4099(2) 0.10877(18) 0.23774(18)
H23 H 0.4034 0.0992 0.2308
C24 C 0.4198(2) 0.1235(2) 0.22766(19)
H24 H 0.4200 0.1232 0.2142
C25 C 0.4290(2) 0.13786(18) 0.2366(2)
C26 C 0.4296(3) 0.1369(2) 0.2560(2)
H26 H 0.4371 0.1456 0.2630
C27 C 0.4191(3) 0.1228(2) 0.2656(2)
H27 H 0.4185 0.1233 0.2791
C31 C 0.4252(2) 0.1952(2) 0.1457(2)
O31A O 0.43832(11) 0.19874(11) 0.13372(14)
O31B O 0.41450(14) 0.20772(12) 0.15138(18)
C32 C 0.42114(16) 0.17411(17) 0.15106(15)
C33 C 0.40605(19) 0.16913(18) 0.16246(18)
H33 H 0.3982 0.1788 0.1676
C34 C 0.40208(19) 0.14982(18) 0.1666(2)
H34A H 0.3915 0.1466 0.1743
C35 C 0.41367(18) 0.13582(16) 0.15948(17)
C36 C 0.42890(17) 0.14068(18) 0.14821(17)
H36A H 0.4369 0.1310 0.1434
C37 C 0.43270(17) 0.16000(16) 0.14380(18)
H37A H 0.4431 0.1632 0.1359
C31 C 0.3957(2) 0.0548(2) 0.1752(2)
O31A O 0.38372(14) 0.05126(11) 0.18832(11)
O31B O 0.40138(18) 0.04228(12) 0.16450(14)
C32 C 0.40106(15) 0.07589(17) 0.17114(16)
C33 C 0.41246(18) 0.08087(18) 0.15605(19)
H33 H 0.4176 0.0712 0.1482
C34 C 0.4166(2) 0.10018(18) 0.15208(19)
H34A H 0.4243 0.1034 0.1415
C35 C 0.40948(17) 0.11418(16) 0.16367(18)
C36 C 0.39821(17) 0.10932(18) 0.17890(17)
H36A H 0.3934 0.1190 0.1869
C37 C 0.39380(18) 0.09000(16) 0.18270(17)
H37A H 0.3859 0.0868 0.1931
Zn1 Zn 0.43967(2) 0.02014(2) 0.23946(2)
Zn2 Zn 0.37422(2) 0.025396(18) 0.186884(18)
N1 N 0.39342(14) 0.00630(14) 0.20012(12)
C1 C 0.40833(16) 0.01389(17) 0.20954(14)
H1 H 0.4113 0.0267 0.2066
N2 N 0.41962(12) 0.00514(13) 0.22283(12)
C2 C 0.41400(18) -0.01318(16) 0.22555(16)
C3 C 0.39825(18) -0.02318(17) 0.21633(16)
C4 C 0.38844(19) -0.01317(19) 0.20317(19)
N3 N 0.39588(15) -0.04166(12) 0.22379(13)
C5 C 0.41084(17) -0.04169(18) 0.23642(17)
H5 H 0.4136 -0.0527 0.2437
N4 N 0.42179(14) -0.02558(14) 0.23835(13)
N5 N 0.37346(15) -0.02191(12) 0.19332(13)
H10A H 0.3705 -0.0338 0.1957
H10B H 0.3671 -0.0155 0.1848
C11 C 0.4455(2) 0.0527(2) 0.2209(2)
O11A O 0.45520(17) 0.03896(14) 0.22684(16)
O11B O 0.42792(16) 0.05419(15) 0.22244(17)
C12 C 0.4561(2) 0.06824(18) 0.20977(17)
C13 C 0.44656(19) 0.08283(18) 0.2012(2)
H13 H 0.4331 0.0832 0.2018
C14 C 0.45649(18) 0.09767(19) 0.1912(2)
H14 H 0.4495 0.1078 0.1856
C15 C 0.47581(19) 0.09733(18) 0.1895(2)
C16 C 0.4848(2) 0.0819(2) 0.1971(3)
H16 H 0.4980 0.0803 0.1947
C17 C 0.4754(2) 0.0679(2) 0.2084(3)
H17 H 0.4825 0.0584 0.2149
C21 C 0.5178(2) 0.1570(2) 0.1488(2)
O21A O 0.50832(11) 0.16768(10) 0.13807(12)
O21B O 0.53525(14) 0.15833(18) 0.1496(2)
C22 C 0.50668(19) 0.14157(17) 0.15962(17)
C23 C 0.48774(18) 0.14123(18) 0.1599(2)
H23 H 0.4808 0.1508 0.1534
C24 C 0.47766(19) 0.1265(2) 0.1698(2)
H24 H 0.4642 0.1268 0.1700
C25 C 0.4866(2) 0.11214(18) 0.1790(2)
C26 C 0.5060(2) 0.1131(2) 0.1796(3)
H26 H 0.5130 0.1044 0.1871
C27 C 0.5156(2) 0.1272(2) 0.1691(3)
H27 H 0.5291 0.1267 0.1685
Zn1 Zn 0.51054(2) 0.27014(2) 0.18967(2)
Zn1 Zn 0.43967(2) -0.02014(2) 0.26054(2)
Zn2 Zn 0.37578(2) -0.063116(18) 0.224604(18)
Zn2 Zn 0.525396(18) 0.186884(18) 0.12578(2)
Zn2 Zn 0.37578(2) 0.063116(18) 0.275396(18)
Zn2 Zn 0.474604(18) 0.313116(18) 0.12578(2)
N3 N 0.45834(12) 0.22379(13) 0.10412(15)
N3 N 0.35412(15) 0.02621(13) 0.20834(12)
N4 N 0.51165(13) 0.22442(14) 0.17179(14)
N4 N 0.42179(14) 0.02558(14) 0.26165(13)
O1 O 0.45618(13) 0.0000 0.2500
O21A O 0.36193(12) 0.00832(11) 0.16768(10)
O21A O 0.41768(10) 0.24168(11) 0.11193(12)
Zn1 Zn 0.01054(2) 0.77014(2) 0.68967(2)
Zn2 Zn 0.063116(18) 0.775396(18) 0.62422(2)
N1 N 0.04988(12) 0.75630(14) 0.64342(14)
C1 C 0.04046(14) 0.76389(17) 0.65833(16)
H1 H 0.0434 0.7767 0.6613
N2 N 0.02717(12) 0.75514(13) 0.66962(12)
C2 C 0.02445(16) 0.73682(16) 0.66400(18)
C3 C 0.03367(16) 0.72682(17) 0.64825(18)
C4 C 0.04683(19) 0.73683(19) 0.63844(19)
N3 N 0.02621(13) 0.70834(12) 0.64588(15)
C5 C 0.01358(17) 0.70831(18) 0.66084(17)
H5 H 0.0063 0.6973 0.6636
N4 N 0.01165(13) 0.72442(14) 0.67179(14)
N5 N 0.05668(13) 0.72809(12) 0.62346(15)
H10A H 0.0543 0.7162 0.6205
H10B H 0.0652 0.7345 0.6171
O1 O 0.0000 0.7500 0.70618(13)
C11 C 0.0291(2) 0.8027(2) 0.6955(2)
O11A O 0.02316(16) 0.78896(14) 0.70520(17)
O11B O 0.02756(17) 0.80419(15) 0.67792(16)
C12 C 0.04023(17) 0.81824(18) 0.7061(2)
C13 C 0.0488(2) 0.83283(18) 0.69656(19)
H13 H 0.0482 0.8332 0.6831
C14 C 0.0588(2) 0.84767(19) 0.70649(18)
H14 H 0.0644 0.8578 0.6995
C15 C 0.0605(2) 0.84733(18) 0.72581(19)
C16 C 0.0529(3) 0.8319(2) 0.7348(2)
H16 H 0.0553 0.8303 0.7480
C17 C 0.0416(3) 0.8179(2) 0.7254(2)
H17 H 0.0351 0.8084 0.7325
C21 C 0.1012(2) 0.9070(2) 0.7678(2)
O21A O 0.11193(12) 0.91768(10) 0.75832(11)
O21B O 0.1004(2) 0.90833(18) 0.78525(14)
C22 C 0.09038(17) 0.89157(17) 0.75668(19)
C23 C 0.0901(2) 0.89123(18) 0.73774(18)
H23 H 0.0966 0.9008 0.7308
C24 C 0.0802(2) 0.8765(2) 0.72766(19)
H24 H 0.0800 0.8768 0.7142
C25 C 0.0710(2) 0.86214(18) 0.7366(2)
C26 C 0.0704(3) 0.8631(2) 0.7560(2)
H26 H 0.0629 0.8544 0.7630
C27 C 0.0809(3) 0.8772(2) 0.7656(2)
H27 H 0.0815 0.8767 0.7791
C31 C 0.0748(2) 0.8048(2) 0.6457(2)
O31A O 0.06168(11) 0.80126(11) 0.63372(14)
O31B O 0.08550(14) 0.79228(12) 0.65138(18)
C32 C 0.07886(16) 0.82589(17) 0.65106(15)
C33 C 0.09395(19) 0.83087(18) 0.66246(18)
H33 H 0.1018 0.8212 0.6676
C34 C 0.09792(19) 0.85018(18) 0.6666(2)
H34A H 0.1085 0.8534 0.6743
C35 C 0.08633(18) 0.86418(16) 0.65948(17)
C36 C 0.07110(17) 0.85932(18) 0.64821(17)
H36A H 0.0631 0.8690 0.6434
C37 C 0.06730(17) 0.84000(16) 0.64380(18)
H37A H 0.0569 0.8368 0.6359
C31 C 0.1043(2) 0.9452(2) 0.6752(2)
O31A O 0.11628(14) 0.94874(11) 0.68832(11)
O31B O 0.09862(18) 0.95772(12) 0.66450(14)
C32 C 0.09894(15) 0.92411(17) 0.67114(16)
C33 C 0.08754(18) 0.91913(18) 0.65605(19)
H33 H 0.0824 0.9288 0.6482
C34 C 0.0834(2) 0.89982(18) 0.65208(19)
H34A H 0.0757 0.8966 0.6415
C35 C 0.09052(17) 0.88582(16) 0.66367(18)
C36 C 0.10179(17) 0.89068(18) 0.67890(17)
H36A H 0.1066 0.8810 0.6869
C37 C 0.10620(18) 0.91000(16) 0.68270(17)
H37A H 0.1141 0.9132 0.6931
Zn1 Zn 0.06033(2) 0.97986(2) 0.73946(2)
Zn2 Zn 0.12578(2) 0.974604(18) 0.686884(18)
N1 N 0.10658(14) 0.99370(14) 0.70012(12)
C1 C 0.09167(16) 0.98611(17) 0.70954(14)
H1 H 0.0887 0.9733 0.7066
N2 N 0.08038(12) 0.99486(13) 0.72283(12)
C2 C 0.08600(18) 1.01318(16) 0.72555(16)
C3 C 0.10175(18) 1.02318(17) 0.71633(16)
C4 C 0.11156(19) 1.01317(19) 0.70317(19)
N3 N 0.10412(15) 1.04166(12) 0.72379(13)
C5 C 0.08916(17) 1.04169(18) 0.73642(17)
H5 H 0.0864 1.0527 0.7437
N4 N 0.07821(14) 1.02558(14) 0.73835(13)
N5 N 0.12654(15) 1.02191(12) 0.69332(13)
H10A H 0.1295 1.0338 0.6957
H10B H 0.1329 1.0155 0.6848
C11 C 0.0545(2) 0.9473(2) 0.7209(2)
O11A O 0.04480(17) 0.96104(14) 0.72684(16)
O11B O 0.07208(16) 0.94581(15) 0.72244(17)
C12 C 0.0439(2) 0.93176(18) 0.70977(17)
C13 C 0.05344(19) 0.91717(18) 0.7012(2)
H13 H 0.0669 0.9168 0.7018
C14 C 0.04351(18) 0.90233(19) 0.6912(2)
H14 H 0.0505 0.8922 0.6856
C15 C 0.02419(19) 0.90267(18) 0.6895(2)
C16 C 0.0152(2) 0.9181(2) 0.6971(3)
H16 H 0.0020 0.9197 0.6947
C17 C 0.0246(2) 0.9321(2) 0.7084(3)
H17 H 0.0175 0.9416 0.7149
C21 C -0.0178(2) 0.8430(2) 0.6488(2)
O21A O -0.00832(11) 0.83232(10) 0.63807(12)
O21B O -0.03525(14) 0.84167(18) 0.6496(2)
C22 C -0.00668(19) 0.85843(17) 0.65962(17)
C23 C 0.01226(18) 0.85877(18) 0.6599(2)
H23 H 0.0192 0.8492 0.6534
C24 C 0.02234(19) 0.8735(2) 0.6698(2)
H24 H 0.0358 0.8732 0.6700
C25 C 0.0134(2) 0.88786(18) 0.6790(2)
C26 C -0.0060(2) 0.8869(2) 0.6796(3)
H26 H -0.0130 0.8956 0.6871
C27 C -0.0156(2) 0.8728(2) 0.6691(3)
H27 H -0.0291 0.8733 0.6685
Zn1 Zn -0.01054(2) 0.72986(2) 0.68967(2)
Zn1 Zn 0.06033(2) 1.02014(2) 0.76054(2)
Zn2 Zn 0.12422(2) 1.063116(18) 0.724604(18)
Zn2 Zn -0.025396(18) 0.813116(18) 0.62578(2)
Zn2 Zn 0.12422(2) 0.936884(18) 0.775396(18)
Zn2 Zn 0.025396(18) 0.686884(18) 0.62578(2)
N3 N 0.04166(12) 0.77621(13) 0.60412(15)
N3 N 0.14588(15) 0.97379(13) 0.70834(12)
N4 N -0.01165(13) 0.77558(14) 0.67179(14)
N4 N 0.07821(14) 0.97442(14) 0.76165(13)
O1 O 0.04382(13) 1.0000 0.7500
O21A O 0.13807(12) 0.99168(11) 0.66768(10)
O21A O 0.08232(10) 0.75832(11) 0.61193(12)
Zn1 Zn 0.51054(2) 0.72986(2) 0.31033(2)
Zn2 Zn 0.563116(18) 0.724604(18) 0.37578(2)
N1 N 0.54988(12) 0.74370(14) 0.35658(14)
C1 C 0.54046(14) 0.73611(17) 0.34167(16)
H1 H 0.5434 0.7233 0.3387
N2 N 0.52717(12) 0.74486(13) 0.33038(12)
C2 C 0.52445(16) 0.76318(16) 0.33600(18)
C3 C 0.53367(16) 0.77318(17) 0.35175(18)
C4 C 0.54683(19) 0.76317(19) 0.36156(19)
N3 N 0.52621(13) 0.79166(12) 0.35412(15)
C5 C 0.51358(17) 0.79169(18) 0.33916(17)
H5 H 0.5063 0.8027 0.3364
N4 N 0.51165(13) 0.77558(14) 0.32821(14)
N5 N 0.55668(13) 0.77191(12) 0.37654(15)
H10A H 0.5543 0.7838 0.3795
H10B H 0.5652 0.7655 0.3829
O1 O 0.5000 0.7500 0.29382(13)
C11 C 0.5291(2) 0.6973(2) 0.3045(2)
O11A O 0.52316(16) 0.71104(14) 0.29480(17)
O11B O 0.52756(17) 0.69581(15) 0.32208(16)
C12 C 0.54023(17) 0.68176(18) 0.2939(2)
C13 C 0.5488(2) 0.66717(18) 0.30344(19)
H13 H 0.5482 0.6668 0.3169
C14 C 0.5588(2) 0.65233(19) 0.29351(18)
H14 H 0.5644 0.6422 0.3005
C15 C 0.5605(2) 0.65267(18) 0.27419(19)
C16 C 0.5529(3) 0.6681(2) 0.2652(2)
H16 H 0.5553 0.6697 0.2520
C17 C 0.5416(3) 0.6821(2) 0.2746(2)
H17 H 0.5351 0.6916 0.2675
C21 C 0.6012(2) 0.5930(2) 0.2322(2)
O21A O 0.61193(12) 0.58232(10) 0.24168(11)
O21B O 0.6004(2) 0.59167(18) 0.21475(14)
C22 C 0.59038(17) 0.60843(17) 0.24332(19)
C23 C 0.5901(2) 0.60877(18) 0.26226(18)
H23 H 0.5966 0.5992 0.2692
C24 C 0.5802(2) 0.6235(2) 0.27234(19)
H24 H 0.5800 0.6232 0.2858
C25 C 0.5710(2) 0.63786(18) 0.2634(2)
C26 C 0.5704(3) 0.6369(2) 0.2440(2)
H26 H 0.5629 0.6456 0.2370
C27 C 0.5809(3) 0.6228(2) 0.2344(2)
H27 H 0.5815 0.6233 0.2209
C31 C 0.5748(2) 0.6952(2) 0.3543(2)
O31A O 0.56168(11) 0.69874(11) 0.36628(14)
O31B O 0.58550(14) 0.70772(12) 0.34862(18)
C32 C 0.57886(16) 0.67411(17) 0.34894(15)
C33 C 0.59395(19) 0.66913(18) 0.33754(18)
H33 H 0.6018 0.6788 0.3324
C34 C 0.59792(19) 0.64982(18) 0.3334(2)
H34A H 0.6085 0.6466 0.3257
C35 C 0.58633(18) 0.63582(16) 0.34052(17)
C36 C 0.57110(17) 0.64068(18) 0.35179(17)
H36A H 0.5631 0.6310 0.3566
C37 C 0.56730(17) 0.66000(16) 0.35620(18)
H37A H 0.5569 0.6632 0.3641
C31 C 0.6043(2) 0.5548(2) 0.3248(2)
O31A O 0.61628(14) 0.55126(11) 0.31168(11)
O31B O 0.59862(18) 0.54228(12) 0.33550(14)
C32 C 0.59894(15) 0.57589(17) 0.32886(16)
C33 C 0.58754(18) 0.58087(18) 0.34395(19)
H33 H 0.5824 0.5712 0.3518
C34 C 0.5834(2) 0.60018(18) 0.34792(19)
H34A H 0.5757 0.6034 0.3585
C35 C 0.59052(17) 0.61418(16) 0.33633(18)
C36 C 0.60179(17) 0.60932(18) 0.32110(17)
H36A H 0.6066 0.6190 0.3131
C37 C 0.60620(18) 0.59000(16) 0.31730(17)
H37A H 0.6141 0.5868 0.3069
Zn1 Zn 0.56033(2) 0.52014(2) 0.26054(2)
Zn2 Zn 0.62578(2) 0.525396(18) 0.313116(18)
N1 N 0.60658(14) 0.50630(14) 0.29988(12)
C1 C 0.59167(16) 0.51389(17) 0.29046(14)
H1 H 0.5887 0.5267 0.2934
N2 N 0.58038(12) 0.50514(13) 0.27717(12)
C2 C 0.58600(18) 0.48682(16) 0.27445(16)
C3 C 0.60175(18) 0.47682(17) 0.28367(16)
C4 C 0.61156(19) 0.48683(19) 0.29683(19)
N3 N 0.60412(15) 0.45834(12) 0.27621(13)
C5 C 0.58916(17) 0.45831(18) 0.26358(17)
H5 H 0.5864 0.4473 0.2563
N4 N 0.57821(14) 0.47442(14) 0.26165(13)
N5 N 0.62654(15) 0.47809(12) 0.30668(13)
H10A H 0.6295 0.4662 0.3043
H10B H 0.6329 0.4845 0.3152
C11 C 0.5545(2) 0.5527(2) 0.2791(2)
O11A O 0.54480(17) 0.53896(14) 0.27316(16)
O11B O 0.57208(16) 0.55419(15) 0.27756(17)
C12 C 0.5439(2) 0.56824(18) 0.29023(17)
C13 C 0.55344(19) 0.58283(18) 0.2988(2)
H13 H 0.5669 0.5832 0.2982
C14 C 0.54351(18) 0.59767(19) 0.3088(2)
H14 H 0.5505 0.6078 0.3144
C15 C 0.52419(19) 0.59733(18) 0.3105(2)
C16 C 0.5152(2) 0.5819(2) 0.3029(3)
H16 H 0.5020 0.5803 0.3053
C17 C 0.5246(2) 0.5679(2) 0.2916(3)
H17 H 0.5175 0.5584 0.2851
C21 C 0.4822(2) 0.6570(2) 0.3512(2)
O21A O 0.49168(11) 0.66768(10) 0.36193(12)
O21B O 0.46475(14) 0.65833(18) 0.3504(2)
C22 C 0.49332(19) 0.64157(17) 0.34038(17)
C23 C 0.51226(18) 0.64123(18) 0.3401(2)
H23 H 0.5192 0.6508 0.3466
C24 C 0.52234(19) 0.6265(2) 0.3302(2)
H24 H 0.5358 0.6268 0.3300
C25 C 0.5134(2) 0.61214(18) 0.3210(2)
C26 C 0.4940(2) 0.6131(2) 0.3204(3)
H26 H 0.4870 0.6044 0.3129
C27 C 0.4844(2) 0.6272(2) 0.3309(3)
H27 H 0.4709 0.6267 0.3315
Zn1 Zn 0.48946(2) 0.77014(2) 0.31033(2)
Zn1 Zn 0.56033(2) 0.47986(2) 0.23946(2)
Zn2 Zn 0.62422(2) 0.436884(18) 0.275396(18)
Zn2 Zn 0.474604(18) 0.686884(18) 0.37422(2)
Zn2 Zn 0.62422(2) 0.563116(18) 0.224604(18)
Zn2 Zn 0.525396(18) 0.813116(18) 0.37422(2)
N3 N 0.54166(12) 0.72379(13) 0.39588(15)
N3 N 0.64588(15) 0.52621(13) 0.29166(12)
N4 N 0.48835(13) 0.72442(14) 0.32821(14)
N4 N 0.57821(14) 0.52558(14) 0.23835(13)
O1 O 0.54382(13) 0.5000 0.2500
O21A O 0.63807(12) 0.50832(11) 0.33232(10)
O21A O 0.58232(10) 0.74168(11) 0.38807(12)
Zn1 Zn 0.98946(2) 0.27014(2) 0.81033(2)
Zn2 Zn 0.936884(18) 0.275396(18) 0.87578(2)
N1 N 0.95012(12) 0.25630(14) 0.85658(14)
C1 C 0.95954(14) 0.26389(17) 0.84167(16)
H1 H 0.9566 0.2767 0.8387
N2 N 0.97283(12) 0.25514(13) 0.83038(12)
C2 C 0.97555(16) 0.23682(16) 0.83600(18)
C3 C 0.96633(16) 0.22682(17) 0.85175(18)
C4 C 0.95317(19) 0.23683(19) 0.86156(19)
N3 N 0.97379(13) 0.20834(12) 0.85412(15)
C5 C 0.98642(17) 0.20831(18) 0.83916(17)
H5 H 0.9937 0.1973 0.8364
N4 N 0.98835(13) 0.22442(14) 0.82821(14)
N5 N 0.94332(13) 0.22809(12) 0.87654(15)
H10A H 0.9457 0.2162 0.8795
H10B H 0.9348 0.2345 0.8829
O1 O 1.0000 0.2500 0.79382(13)
C11 C 0.9709(2) 0.3027(2) 0.8045(2)
O11A O 0.97684(16) 0.28896(14) 0.79480(17)
O11B O 0.97244(17) 0.30419(15) 0.82208(16)
C12 C 0.95977(17) 0.31824(18) 0.7939(2)
C13 C 0.9512(2) 0.33283(18) 0.80344(19)
H13 H 0.9518 0.3332 0.8169
C14 C 0.9412(2) 0.34767(19) 0.79351(18)
H14 H 0.9356 0.3578 0.8005
C15 C 0.9395(2) 0.34733(18) 0.77419(19)
C16 C 0.9471(3) 0.3319(2) 0.7652(2)
H16 H 0.9447 0.3303 0.7520
C17 C 0.9584(3) 0.3179(2) 0.7746(2)
H17 H 0.9649 0.3084 0.7675
C21 C 0.8988(2) 0.4070(2) 0.7322(2)
O21A O 0.88807(12) 0.41768(10) 0.74168(11)
O21B O 0.8996(2) 0.40833(18) 0.71475(14)
C22 C 0.90962(17) 0.39157(17) 0.74332(19)
C23 C 0.9099(2) 0.39123(18) 0.76226(18)
H23 H 0.9034 0.4008 0.7692
C24 C 0.9198(2) 0.3765(2) 0.77234(19)
H24 H 0.9200 0.3768 0.7858
C25 C 0.9290(2) 0.36214(18) 0.7634(2)
C26 C 0.9296(3) 0.3631(2) 0.7440(2)
H26 H 0.9371 0.3544 0.7370
C27 C 0.9191(3) 0.3772(2) 0.7344(2)
H27 H 0.9185 0.3767 0.7209
C31 C 0.9252(2) 0.3048(2) 0.8543(2)
O31A O 0.93832(11) 0.30126(11) 0.86628(14)
O31B O 0.91450(14) 0.29228(12) 0.84862(18)
C32 C 0.92114(16) 0.32589(17) 0.84894(15)
C33 C 0.90605(19) 0.33087(18) 0.83754(18)
H33 H 0.8982 0.3212 0.8324
C34 C 0.90208(19) 0.35018(18) 0.8334(2)
H34A H 0.8915 0.3534 0.8257
C35 C 0.91367(18) 0.36418(16) 0.84052(17)
C36 C 0.92890(17) 0.35932(18) 0.85179(17)
H36A H 0.9369 0.3690 0.8566
C37 C 0.93270(17) 0.34000(16) 0.85620(18)
H37A H 0.9431 0.3368 0.8641
C31 C 0.8957(2) 0.4452(2) 0.8248(2)
O31A O 0.88372(14) 0.44874(11) 0.81168(11)
O31B O 0.90138(18) 0.45772(12) 0.83550(14)
C32 C 0.90106(15) 0.42411(17) 0.82886(16)
C33 C 0.91246(18) 0.41913(18) 0.84395(19)
H33 H 0.9176 0.4288 0.8518
C34 C 0.9166(2) 0.39982(18) 0.84792(19)
H34A H 0.9243 0.3966 0.8585
C35 C 0.90948(17) 0.38582(16) 0.83633(18)
C36 C 0.89821(17) 0.39068(18) 0.82110(17)
H36A H 0.8934 0.3810 0.8131
C37 C 0.89380(18) 0.41000(16) 0.81730(17)
H37A H 0.8859 0.4132 0.8069
Zn1 Zn 0.93967(2) 0.47986(2) 0.76054(2)
Zn2 Zn 0.87422(2) 0.474604(18) 0.813116(18)
N1 N 0.89342(14) 0.49370(14) 0.79988(12)
C1 C 0.90833(16) 0.48611(17) 0.79046(14)
H1 H 0.9113 0.4733 0.7934
N2 N 0.91962(12) 0.49486(13) 0.77717(12)
C2 C 0.91400(18) 0.51318(16) 0.77445(16)
C3 C 0.89825(18) 0.52318(17) 0.78367(16)
C4 C 0.88844(19) 0.51317(19) 0.79683(19)
N3 N 0.89588(15) 0.54166(12) 0.77621(13)
C5 C 0.91084(17) 0.54169(18) 0.76358(17)
H5 H 0.9136 0.5527 0.7563
N4 N 0.92179(14) 0.52558(14) 0.76165(13)
N5 N 0.87346(15) 0.52191(12) 0.80668(13)
H10A H 0.8705 0.5338 0.8043
H10B H 0.8671 0.5155 0.8152
C11 C 0.9455(2) 0.4473(2) 0.7791(2)
O11A O 0.95520(17) 0.46104(14) 0.77316(16)
O11B O 0.92792(16) 0.44581(15) 0.77756(17)
C12 C 0.9561(2) 0.43176(18) 0.79023(17)
C13 C 0.94656(19) 0.41717(18) 0.7988(2)
H13 H 0.9331 0.4168 0.7982
C14 C 0.95649(18) 0.40233(19) 0.8088(2)
H14 H 0.9495 0.3922 0.8144
C15 C 0.97581(19) 0.40267(18) 0.8105(2)
C16 C 0.9848(2) 0.4181(2) 0.8029(3)
H16 H 0.9980 0.4197 0.8053
C17 C 0.9754(2) 0.4321(2) 0.7916(3)
H17 H 0.9825 0.4416 0.7851
C21 C 1.0178(2) 0.3430(2) 0.8512(2)
O21A O 1.00832(11) 0.33232(10) 0.86193(12)
O21B O 1.03525(14) 0.34167(18) 0.8504(2)
C22 C 1.00668(19) 0.35843(17) 0.84038(17)
C23 C 0.98774(18) 0.35877(18) 0.8401(2)
H23 H 0.9808 0.3492 0.8466
C24 C 0.97766(19) 0.3735(2) 0.8302(2)
H24 H 0.9642 0.3732 0.8300
C25 C 0.9866(2) 0.38786(18) 0.8210(2)
C26 C 1.0060(2) 0.3869(2) 0.8204(3)
H26 H 1.0130 0.3956 0.8129
C27 C 1.0156(2) 0.3728(2) 0.8309(3)
H27 H 1.0291 0.3733 0.8315
Zn1 Zn 1.01054(2) 0.22986(2) 0.81033(2)
Zn1 Zn 0.93967(2) 0.52014(2) 0.73946(2)
Zn2 Zn 0.87578(2) 0.563116(18) 0.775396(18)
Zn2 Zn 1.025396(18) 0.313116(18) 0.87422(2)
Zn2 Zn 0.87578(2) 0.436884(18) 0.724604(18)
Zn2 Zn 0.974604(18) 0.186884(18) 0.87422(2)
N3 N 0.95834(12) 0.27621(13) 0.89588(15)
N3 N 0.85412(15) 0.47379(13) 0.79166(12)
N4 N 1.01165(13) 0.27558(14) 0.82821(14)
N4 N 0.92179(14) 0.47442(14) 0.73835(13)
O1 O 0.95618(13) 0.5000 0.7500
O21A O 0.86193(12) 0.49168(11) 0.83232(10)
O21A O 0.91768(10) 0.25832(11) 0.88807(12)
Zn1 Zn 0.18967(2) 0.48946(2) 0.22986(2)
Zn2 Zn 0.12422(2) 0.436884(18) 0.224604(18)
N1 N 0.14342(14) 0.45012(12) 0.24370(14)
C1 C 0.15833(16) 0.45954(14) 0.23611(17)
H1 H 0.1613 0.4566 0.2233
N2 N 0.16962(12) 0.47283(12) 0.24486(13)
C2 C 0.16400(18) 0.47555(16) 0.26318(16)
C3 C 0.14825(18) 0.46633(16) 0.27318(17)
C4 C 0.13844(19) 0.45317(19) 0.26317(19)
N3 N 0.14588(15) 0.47379(13) 0.29166(12)
C5 C 0.16084(17) 0.48642(17) 0.29169(18)
H5 H 0.1636 0.4937 0.3027
N4 N 0.17179(14) 0.48835(13) 0.27558(14)
N5 N 0.12346(15) 0.44332(13) 0.27191(12)
H10A H 0.1205 0.4457 0.2838
H10B H 0.1171 0.4348 0.2655
O1 O 0.20618(13) 0.5000 0.2500
C11 C 0.1955(2) 0.4709(2) 0.1973(2)
O11A O 0.20520(17) 0.47684(16) 0.21104(14)
O11B O 0.17792(16) 0.47244(17) 0.19581(15)
C12 C 0.2061(2) 0.45977(17) 0.18176(18)
C13 C 0.19656(19) 0.4512(2) 0.16717(18)
H13 H 0.1831 0.4518 0.1668
C14 C 0.20649(18) 0.4412(2) 0.15233(19)
H14 H 0.1995 0.4356 0.1422
C15 C 0.22581(19) 0.4395(2) 0.15267(18)
C16 C 0.2348(2) 0.4471(3) 0.1681(2)
H16 H 0.2480 0.4447 0.1697
C17 C 0.2254(2) 0.4584(3) 0.1821(2)
H17 H 0.2325 0.4649 0.1916
C21 C 0.2678(2) 0.3988(2) 0.0930(2)
O21A O 0.25832(11) 0.38807(12) 0.08232(10)
O21B O 0.28525(14) 0.3996(2) 0.09167(18)
C22 C 0.25668(19) 0.40962(17) 0.10843(17)
C23 C 0.23774(18) 0.4099(2) 0.10877(18)
H23 H 0.2308 0.4034 0.0992
C24 C 0.22766(19) 0.4198(2) 0.1235(2)
H24 H 0.2142 0.4200 0.1232
C25 C 0.2366(2) 0.4290(2) 0.13786(18)
C26 C 0.2560(2) 0.4296(3) 0.1369(2)
H26 H 0.2630 0.4371 0.1456
C27 C 0.2656(2) 0.4191(3) 0.1228(2)
H27 H 0.2791 0.4185 0.1233
C31 C 0.1457(2) 0.4252(2) 0.1952(2)
O31A O 0.13372(14) 0.43832(11) 0.19874(11)
O31B O 0.15138(18) 0.41450(14) 0.20772(12)
C32 C 0.15106(15) 0.42114(16) 0.17411(17)
C33 C 0.16246(18) 0.40605(19) 0.16913(18)
H33 H 0.1676 0.3982 0.1788
C34 C 0.1666(2) 0.40208(19) 0.14982(18)
H34A H 0.1743 0.3915 0.1466
C35 C 0.15948(17) 0.41367(18) 0.13582(16)
C36 C 0.14821(17) 0.42890(17) 0.14068(18)
H36A H 0.1434 0.4369 0.1310
C37 C 0.14380(18) 0.43270(17) 0.16000(16)
H37A H 0.1359 0.4431 0.1632
C31 C 0.1752(2) 0.3957(2) 0.0548(2)
O31A O 0.18832(11) 0.38372(14) 0.05126(11)
O31B O 0.16450(14) 0.40138(18) 0.04228(12)
C32 C 0.17114(16) 0.40106(15) 0.07589(17)
C33 C 0.15605(19) 0.41246(18) 0.08087(18)
H33 H 0.1482 0.4176 0.0712
C34 C 0.15208(19) 0.4166(2) 0.10018(18)
H34A H 0.1415 0.4243 0.1034
C35 C 0.16367(18) 0.40948(17) 0.11418(16)
C36 C 0.17890(17) 0.39821(17) 0.10932(18)
H36A H 0.1869 0.3934 0.1190
C37 C 0.18270(17) 0.39380(18) 0.09000(16)
H37A H 0.1931 0.3859 0.0868
Zn1 Zn 0.23946(2) 0.43967(2) 0.02014(2)
Zn2 Zn 0.186884(18) 0.37422(2) 0.025396(18)
N1 N 0.20012(12) 0.39342(14) 0.00630(14)
C1 C 0.20954(14) 0.40833(16) 0.01389(17)
H1 H 0.2066 0.4113 0.0267
N2 N 0.22283(12) 0.41962(12) 0.00514(13)
C2 C 0.22555(16) 0.41400(18) -0.01318(16)
C3 C 0.21633(16) 0.39825(18) -0.02318(17)
C4 C 0.20317(19) 0.38844(19) -0.01317(19)
N3 N 0.22379(13) 0.39588(15) -0.04166(12)
C5 C 0.23642(17) 0.41084(17) -0.04169(18)
H5 H 0.2437 0.4136 -0.0527
N4 N 0.23835(13) 0.42179(14) -0.02558(14)
N5 N 0.19332(13) 0.37346(15) -0.02191(12)
H10A H 0.1957 0.3705 -0.0338
H10B H 0.1848 0.3671 -0.0155
C11 C 0.2209(2) 0.4455(2) 0.0527(2)
O11A O 0.22684(16) 0.45520(17) 0.03896(14)
O11B O 0.22244(17) 0.42792(16) 0.05419(15)
C12 C 0.20977(17) 0.4561(2) 0.06824(18)
C13 C 0.2012(2) 0.44656(19) 0.08283(18)
H13 H 0.2018 0.4331 0.0832
C14 C 0.1912(2) 0.45649(18) 0.09767(19)
H14 H 0.1856 0.4495 0.1078
C15 C 0.1895(2) 0.47581(19) 0.09733(18)
C16 C 0.1971(3) 0.4848(2) 0.0819(2)
H16 H 0.1947 0.4980 0.0803
C17 C 0.2084(3) 0.4754(2) 0.0679(2)
H17 H 0.2149 0.4825 0.0584
C21 C 0.1488(2) 0.5178(2) 0.1570(2)
O21A O 0.13807(12) 0.50832(11) 0.16768(10)
O21B O 0.1496(2) 0.53525(14) 0.15833(18)
C22 C 0.15962(17) 0.50668(19) 0.14157(17)
C23 C 0.1599(2) 0.48774(18) 0.14123(18)
H23 H 0.1534 0.4808 0.1508
C24 C 0.1698(2) 0.47766(19) 0.1265(2)
H24 H 0.1700 0.4642 0.1268
C25 C 0.1790(2) 0.4866(2) 0.11214(18)
C26 C 0.1796(3) 0.5060(2) 0.1131(2)
H26 H 0.1871 0.5130 0.1044
C27 C 0.1691(3) 0.5156(2) 0.1272(2)
H27 H 0.1685 0.5291 0.1267
Zn1 Zn 0.18967(2) 0.51054(2) 0.27014(2)
Zn1 Zn 0.26054(2) 0.43967(2) -0.02014(2)
Zn2 Zn 0.224604(18) 0.37578(2) -0.063116(18)
Zn2 Zn 0.12578(2) 0.525396(18) 0.186884(18)
Zn2 Zn 0.275396(18) 0.37578(2) 0.063116(18)
Zn2 Zn 0.12578(2) 0.474604(18) 0.313116(18)
N3 N 0.10412(15) 0.45834(12) 0.22379(13)
N3 N 0.20834(12) 0.35412(15) 0.02621(13)
N4 N 0.17179(14) 0.51165(13) 0.22442(14)
N4 N 0.26165(13) 0.42179(14) 0.02558(14)
O1 O 0.2500 0.45618(13) 0.0000
O21A O 0.16768(10) 0.36193(12) 0.00832(11)
O21A O 0.11193(12) 0.41768(10) 0.24168(11)
Zn1 Zn 0.68967(2) 0.01054(2) 0.77014(2)
Zn2 Zn 0.62422(2) 0.063116(18) 0.775396(18)
N1 N 0.64342(14) 0.04988(12) 0.75630(14)
C1 C 0.65833(16) 0.04046(14) 0.76389(17)
H1 H 0.6613 0.0434 0.7767
N2 N 0.66962(12) 0.02717(12) 0.75514(13)
C2 C 0.66400(18) 0.02445(16) 0.73682(16)
C3 C 0.64825(18) 0.03367(16) 0.72682(17)
C4 C 0.63844(19) 0.04683(19) 0.73683(19)
N3 N 0.64588(15) 0.02621(13) 0.70834(12)
C5 C 0.66084(17) 0.01358(17) 0.70831(18)
H5 H 0.6636 0.0063 0.6973
N4 N 0.67179(14) 0.01165(13) 0.72442(14)
N5 N 0.62346(15) 0.05668(13) 0.72809(12)
H10A H 0.6205 0.0543 0.7162
H10B H 0.6171 0.0652 0.7345
O1 O 0.70618(13) 0.0000 0.7500
C11 C 0.6955(2) 0.0291(2) 0.8027(2)
O11A O 0.70520(17) 0.02316(16) 0.78896(14)
O11B O 0.67792(16) 0.02756(17) 0.80419(15)
C12 C 0.7061(2) 0.04023(17) 0.81824(18)
C13 C 0.69656(19) 0.0488(2) 0.83283(18)
H13 H 0.6831 0.0482 0.8332
C14 C 0.70649(18) 0.0588(2) 0.84767(19)
H14 H 0.6995 0.0644 0.8578
C15 C 0.72581(19) 0.0605(2) 0.84733(18)
C16 C 0.7348(2) 0.0529(3) 0.8319(2)
H16 H 0.7480 0.0553 0.8303
C17 C 0.7254(2) 0.0416(3) 0.8179(2)
H17 H 0.7325 0.0351 0.8084
C21 C 0.7678(2) 0.1012(2) 0.9070(2)
O21A O 0.75832(11) 0.11193(12) 0.91768(10)
O21B O 0.78525(14) 0.1004(2) 0.90833(18)
C22 C 0.75668(19) 0.09038(17) 0.89157(17)
C23 C 0.73774(18) 0.0901(2) 0.89123(18)
H23 H 0.7308 0.0966 0.9008
C24 C 0.72766(19) 0.0802(2) 0.8765(2)
H24 H 0.7142 0.0800 0.8768
C25 C 0.7366(2) 0.0710(2) 0.86214(18)
C26 C 0.7560(2) 0.0704(3) 0.8631(2)
H26 H 0.7630 0.0629 0.8544
C27 C 0.7656(2) 0.0809(3) 0.8772(2)
H27 H 0.7791 0.0815 0.8767
C31 C 0.6457(2) 0.0748(2) 0.8048(2)
O31A O 0.63372(14) 0.06168(11) 0.80126(11)
O31B O 0.65138(18) 0.08550(14) 0.79228(12)
C32 C 0.65106(15) 0.07886(16) 0.82589(17)
C33 C 0.66246(18) 0.09395(19) 0.83087(18)
H33 H 0.6676 0.1018 0.8212
C34 C 0.6666(2) 0.09792(19) 0.85018(18)
H34A H 0.6743 0.1085 0.8534
C35 C 0.65948(17) 0.08633(18) 0.86418(16)
C36 C 0.64821(17) 0.07110(17) 0.85932(18)
H36A H 0.6434 0.0631 0.8690
C37 C 0.64380(18) 0.06730(17) 0.84000(16)
H37A H 0.6359 0.0569 0.8368
C31 C 0.6752(2) 0.1043(2) 0.9452(2)
O31A O 0.68832(11) 0.11628(14) 0.94874(11)
O31B O 0.66450(14) 0.09862(18) 0.95772(12)
C32 C 0.67114(16) 0.09894(15) 0.92411(17)
C33 C 0.65605(19) 0.08754(18) 0.91913(18)
H33 H 0.6482 0.0824 0.9288
C34 C 0.65208(19) 0.0834(2) 0.89982(18)
H34A H 0.6415 0.0757 0.8966
C35 C 0.66367(18) 0.09052(17) 0.88582(16)
C36 C 0.67890(17) 0.10179(17) 0.89068(18)
H36A H 0.6869 0.1066 0.8810
C37 C 0.68270(17) 0.10620(18) 0.91000(16)
H37A H 0.6931 0.1141 0.9132
Zn1 Zn 0.73946(2) 0.06033(2) 0.97986(2)
Zn2 Zn 0.686884(18) 0.12578(2) 0.974604(18)
N1 N 0.70012(12) 0.10658(14) 0.99370(14)
C1 C 0.70954(14) 0.09167(16) 0.98611(17)
H1 H 0.7066 0.0887 0.9733
N2 N 0.72283(12) 0.08038(12) 0.99486(13)
C2 C 0.72555(16) 0.08600(18) 1.01318(16)
C3 C 0.71633(16) 0.10175(18) 1.02318(17)
C4 C 0.70317(19) 0.11156(19) 1.01317(19)
N3 N 0.72379(13) 0.10412(15) 1.04166(12)
C5 C 0.73642(17) 0.08916(17) 1.04169(18)
H5 H 0.7437 0.0864 1.0527
N4 N 0.73835(13) 0.07821(14) 1.02558(14)
N5 N 0.69332(13) 0.12654(15) 1.02191(12)
H10A H 0.6957 0.1295 1.0338
H10B H 0.6848 0.1329 1.0155
C11 C 0.7209(2) 0.0545(2) 0.9473(2)
O11A O 0.72684(16) 0.04480(17) 0.96104(14)
O11B O 0.72244(17) 0.07208(16) 0.94581(15)
C12 C 0.70977(17) 0.0439(2) 0.93176(18)
C13 C 0.7012(2) 0.05344(19) 0.91717(18)
H13 H 0.7018 0.0669 0.9168
C14 C 0.6912(2) 0.04351(18) 0.90233(19)
H14 H 0.6856 0.0505 0.8922
C15 C 0.6895(2) 0.02419(19) 0.90267(18)
C16 C 0.6971(3) 0.0152(2) 0.9181(2)
H16 H 0.6947 0.0020 0.9197
C17 C 0.7084(3) 0.0246(2) 0.9321(2)
H17 H 0.7149 0.0175 0.9416
C21 C 0.6488(2) -0.0178(2) 0.8430(2)
O21A O 0.63807(12) -0.00832(11) 0.83232(10)
O21B O 0.6496(2) -0.03525(14) 0.84167(18)
C22 C 0.65962(17) -0.00668(19) 0.85843(17)
C23 C 0.6599(2) 0.01226(18) 0.85877(18)
H23 H 0.6534 0.0192 0.8492
C24 C 0.6698(2) 0.02234(19) 0.8735(2)
H24 H 0.6700 0.0358 0.8732
C25 C 0.6790(2) 0.0134(2) 0.88786(18)
C26 C 0.6796(3) -0.0060(2) 0.8869(2)
H26 H 0.6871 -0.0130 0.8956
C27 C 0.6691(3) -0.0156(2) 0.8728(2)
H27 H 0.6685 -0.0291 0.8733
Zn1 Zn 0.68967(2) -0.01054(2) 0.72986(2)
Zn1 Zn 0.76054(2) 0.06033(2) 1.02014(2)
Zn2 Zn 0.724604(18) 0.12422(2) 1.063116(18)
Zn2 Zn 0.62578(2) -0.025396(18) 0.813116(18)
Zn2 Zn 0.775396(18) 0.12422(2) 0.936884(18)
Zn2 Zn 0.62578(2) 0.025396(18) 0.686884(18)
N3 N 0.60412(15) 0.04166(12) 0.77621(13)
N3 N 0.70834(12) 0.14588(15) 0.97379(13)
N4 N 0.67179(14) -0.01165(13) 0.77558(14)
N4 N 0.76165(13) 0.07821(14) 0.97442(14)
O1 O 0.7500 0.04382(13) 1.0000
O21A O 0.66768(10) 0.13807(12) 0.99168(11)
O21A O 0.61193(12) 0.08232(10) 0.75832(11)
Zn1 Zn 0.31033(2) 0.51054(2) 0.72986(2)
Zn2 Zn 0.37578(2) 0.563116(18) 0.724604(18)
N1 N 0.35658(14) 0.54988(12) 0.74370(14)
C1 C 0.34167(16) 0.54046(14) 0.73611(17)
H1 H 0.3387 0.5434 0.7233
N2 N 0.33038(12) 0.52717(12) 0.74486(13)
C2 C 0.33600(18) 0.52445(16) 0.76318(16)
C3 C 0.35175(18) 0.53367(16) 0.77318(17)
C4 C 0.36156(19) 0.54683(19) 0.76317(19)
N3 N 0.35412(15) 0.52621(13) 0.79166(12)
C5 C 0.33916(17) 0.51358(17) 0.79169(18)
H5 H 0.3364 0.5063 0.8027
N4 N 0.32821(14) 0.51165(13) 0.77558(14)
N5 N 0.37654(15) 0.55668(13) 0.77191(12)
H10A H 0.3795 0.5543 0.7838
H10B H 0.3829 0.5652 0.7655
O1 O 0.29382(13) 0.5000 0.7500
C11 C 0.3045(2) 0.5291(2) 0.6973(2)
O11A O 0.29480(17) 0.52316(16) 0.71104(14)
O11B O 0.32208(16) 0.52756(17) 0.69581(15)
C12 C 0.2939(2) 0.54023(17) 0.68176(18)
C13 C 0.30344(19) 0.5488(2) 0.66717(18)
H13 H 0.3169 0.5482 0.6668
C14 C 0.29351(18) 0.5588(2) 0.65233(19)
H14 H 0.3005 0.5644 0.6422
C15 C 0.27419(19) 0.5605(2) 0.65267(18)
C16 C 0.2652(2) 0.5529(3) 0.6681(2)
H16 H 0.2520 0.5553 0.6697
C17 C 0.2746(2) 0.5416(3) 0.6821(2)
H17 H 0.2675 0.5351 0.6916
C21 C 0.2322(2) 0.6012(2) 0.5930(2)
O21A O 0.24168(11) 0.61193(12) 0.58232(10)
O21B O 0.21475(14) 0.6004(2) 0.59167(18)
C22 C 0.24332(19) 0.59038(17) 0.60843(17)
C23 C 0.26226(18) 0.5901(2) 0.60877(18)
H23 H 0.2692 0.5966 0.5992
C24 C 0.27234(19) 0.5802(2) 0.6235(2)
H24 H 0.2858 0.5800 0.6232
C25 C 0.2634(2) 0.5710(2) 0.63786(18)
C26 C 0.2440(2) 0.5704(3) 0.6369(2)
H26 H 0.2370 0.5629 0.6456
C27 C 0.2344(2) 0.5809(3) 0.6228(2)
H27 H 0.2209 0.5815 0.6233
C31 C 0.3543(2) 0.5748(2) 0.6952(2)
O31A O 0.36628(14) 0.56168(11) 0.69874(11)
O31B O 0.34862(18) 0.58550(14) 0.70772(12)
C32 C 0.34894(15) 0.57886(16) 0.67411(17)
C33 C 0.33754(18) 0.59395(19) 0.66913(18)
H33 H 0.3324 0.6018 0.6788
C34 C 0.3334(2) 0.59792(19) 0.64982(18)
H34A H 0.3257 0.6085 0.6466
C35 C 0.34052(17) 0.58633(18) 0.63582(16)
C36 C 0.35179(17) 0.57110(17) 0.64068(18)
H36A H 0.3566 0.5631 0.6310
C37 C 0.35620(18) 0.56730(17) 0.66000(16)
H37A H 0.3641 0.5569 0.6632
C31 C 0.3248(2) 0.6043(2) 0.5548(2)
O31A O 0.31168(11) 0.61628(14) 0.55126(11)
O31B O 0.33550(14) 0.59862(18) 0.54228(12)
C32 C 0.32886(16) 0.59894(15) 0.57589(17)
C33 C 0.34395(19) 0.58754(18) 0.58087(18)
H33 H 0.3518 0.5824 0.5712
C34 C 0.34792(19) 0.5834(2) 0.60018(18)
H34A H 0.3585 0.5757 0.6034
C35 C 0.33633(18) 0.59052(17) 0.61418(16)
C36 C 0.32110(17) 0.60179(17) 0.60932(18)
H36A H 0.3131 0.6066 0.6190
C37 C 0.31730(17) 0.60620(18) 0.59000(16)
H37A H 0.3069 0.6141 0.5868
Zn1 Zn 0.26054(2) 0.56033(2) 0.52014(2)
Zn2 Zn 0.313116(18) 0.62578(2) 0.525396(18)
N1 N 0.29988(12) 0.60658(14) 0.50630(14)
C1 C 0.29046(14) 0.59167(16) 0.51389(17)
H1 H 0.2934 0.5887 0.5267
N2 N 0.27717(12) 0.58038(12) 0.50514(13)
C2 C 0.27445(16) 0.58600(18) 0.48682(16)
C3 C 0.28367(16) 0.60175(18) 0.47682(17)
C4 C 0.29683(19) 0.61156(19) 0.48683(19)
N3 N 0.27621(13) 0.60412(15) 0.45834(12)
C5 C 0.26358(17) 0.58916(17) 0.45831(18)
H5 H 0.2563 0.5864 0.4473
N4 N 0.26165(13) 0.57821(14) 0.47442(14)
N5 N 0.30668(13) 0.62654(15) 0.47809(12)
H10A H 0.3043 0.6295 0.4662
H10B H 0.3152 0.6329 0.4845
C11 C 0.2791(2) 0.5545(2) 0.5527(2)
O11A O 0.27316(16) 0.54480(17) 0.53896(14)
O11B O 0.27756(17) 0.57208(16) 0.55419(15)
C12 C 0.29023(17) 0.5439(2) 0.56824(18)
C13 C 0.2988(2) 0.55344(19) 0.58283(18)
H13 H 0.2982 0.5669 0.5832
C14 C 0.3088(2) 0.54351(18) 0.59767(19)
H14 H 0.3144 0.5505 0.6078
C15 C 0.3105(2) 0.52419(19) 0.59733(18)
C16 C 0.3029(3) 0.5152(2) 0.5819(2)
H16 H 0.3053 0.5020 0.5803
C17 C 0.2916(3) 0.5246(2) 0.5679(2)
H17 H 0.2851 0.5175 0.5584
C21 C 0.3512(2) 0.4822(2) 0.6570(2)
O21A O 0.36193(12) 0.49168(11) 0.66768(10)
O21B O 0.3504(2) 0.46475(14) 0.65833(18)
C22 C 0.34038(17) 0.49332(19) 0.64157(17)
C23 C 0.3401(2) 0.51226(18) 0.64123(18)
H23 H 0.3466 0.5192 0.6508
C24 C 0.3302(2) 0.52234(19) 0.6265(2)
H24 H 0.3300 0.5358 0.6268
C25 C 0.3210(2) 0.5134(2) 0.61214(18)
C26 C 0.3204(3) 0.4940(2) 0.6131(2)
H26 H 0.3129 0.4870 0.6044
C27 C 0.3309(3) 0.4844(2) 0.6272(2)
H27 H 0.3315 0.4709 0.6267
Zn1 Zn 0.31033(2) 0.48946(2) 0.77014(2)
Zn1 Zn 0.23946(2) 0.56033(2) 0.47986(2)
Zn2 Zn 0.275396(18) 0.62422(2) 0.436884(18)
Zn2 Zn 0.37422(2) 0.474604(18) 0.686884(18)
Zn2 Zn 0.224604(18) 0.62422(2) 0.563116(18)
Zn2 Zn 0.37422(2) 0.525396(18) 0.813116(18)
N3 N 0.39588(15) 0.54166(12) 0.72379(13)
N3 N 0.29166(12) 0.64588(15) 0.52621(13)
N4 N 0.32821(14) 0.48835(13) 0.72442(14)
N4 N 0.23835(13) 0.57821(14) 0.52558(14)
O1 O 0.2500 0.54382(13) 0.5000
O21A O 0.33232(10) 0.63807(12) 0.50832(11)
O21A O 0.38807(12) 0.58232(10) 0.74168(11)
Zn1 Zn 0.81033(2) 0.98946(2) 0.27014(2)
Zn2 Zn 0.87578(2) 0.936884(18) 0.275396(18)
N1 N 0.85658(14) 0.95012(12) 0.25630(14)
C1 C 0.84167(16) 0.95954(14) 0.26389(17)
H1 H 0.8387 0.9566 0.2767
N2 N 0.83038(12) 0.97283(12) 0.25514(13)
C2 C 0.83600(18) 0.97555(16) 0.23682(16)
C3 C 0.85175(18) 0.96633(16) 0.22682(17)
C4 C 0.86156(19) 0.95317(19) 0.23683(19)
N3 N 0.85412(15) 0.97379(13) 0.20834(12)
C5 C 0.83916(17) 0.98642(17) 0.20831(18)
H5 H 0.8364 0.9937 0.1973
N4 N 0.82821(14) 0.98835(13) 0.22442(14)
N5 N 0.87654(15) 0.94332(13) 0.22809(12)
H10A H 0.8795 0.9457 0.2162
H10B H 0.8829 0.9348 0.2345
O1 O 0.79382(13) 1.0000 0.2500
C11 C 0.8045(2) 0.9709(2) 0.3027(2)
O11A O 0.79480(17) 0.97684(16) 0.28896(14)
O11B O 0.82208(16) 0.97244(17) 0.30419(15)
C12 C 0.7939(2) 0.95977(17) 0.31824(18)
C13 C 0.80344(19) 0.9512(2) 0.33283(18)
H13 H 0.8169 0.9518 0.3332
C14 C 0.79351(18) 0.9412(2) 0.34767(19)
H14 H 0.8005 0.9356 0.3578
C15 C 0.77419(19) 0.9395(2) 0.34733(18)
C16 C 0.7652(2) 0.9471(3) 0.3319(2)
H16 H 0.7520 0.9447 0.3303
C17 C 0.7746(2) 0.9584(3) 0.3179(2)
H17 H 0.7675 0.9649 0.3084
C21 C 0.7322(2) 0.8988(2) 0.4070(2)
O21A O 0.74168(11) 0.88807(12) 0.41768(10)
O21B O 0.71475(14) 0.8996(2) 0.40833(18)
C22 C 0.74332(19) 0.90962(17) 0.39157(17)
C23 C 0.76226(18) 0.9099(2) 0.39123(18)
H23 H 0.7692 0.9034 0.4008
C24 C 0.77234(19) 0.9198(2) 0.3765(2)
H24 H 0.7858 0.9200 0.3768
C25 C 0.7634(2) 0.9290(2) 0.36214(18)
C26 C 0.7440(2) 0.9296(3) 0.3631(2)
H26 H 0.7370 0.9371 0.3544
C27 C 0.7344(2) 0.9191(3) 0.3772(2)
H27 H 0.7209 0.9185 0.3767
C31 C 0.8543(2) 0.9252(2) 0.3048(2)
O31A O 0.86628(14) 0.93832(11) 0.30126(11)
O31B O 0.84862(18) 0.91450(14) 0.29228(12)
C32 C 0.84894(15) 0.92114(16) 0.32589(17)
C33 C 0.83754(18) 0.90605(19) 0.33087(18)
H33 H 0.8324 0.8982 0.3212
C34 C 0.8334(2) 0.90208(19) 0.35018(18)
H34A H 0.8257 0.8915 0.3534
C35 C 0.84052(17) 0.91367(18) 0.36418(16)
C36 C 0.85179(17) 0.92890(17) 0.35932(18)
H36A H 0.8566 0.9369 0.3690
C37 C 0.85620(18) 0.93270(17) 0.34000(16)
H37A H 0.8641 0.9431 0.3368
C31 C 0.8248(2) 0.8957(2) 0.4452(2)
O31A O 0.81168(11) 0.88372(14) 0.44874(11)
O31B O 0.83550(14) 0.90138(18) 0.45772(12)
C32 C 0.82886(16) 0.90106(15) 0.42411(17)
C33 C 0.84395(19) 0.91246(18) 0.41913(18)
H33 H 0.8518 0.9176 0.4288
C34 C 0.84792(19) 0.9166(2) 0.39982(18)
H34A H 0.8585 0.9243 0.3966
C35 C 0.83633(18) 0.90948(17) 0.38582(16)
C36 C 0.82110(17) 0.89821(17) 0.39068(18)
H36A H 0.8131 0.8934 0.3810
C37 C 0.81730(17) 0.89380(18) 0.41000(16)
H37A H 0.8069 0.8859 0.4132
Zn1 Zn 0.76054(2) 0.93967(2) 0.47986(2)
Zn2 Zn 0.813116(18) 0.87422(2) 0.474604(18)
N1 N 0.79988(12) 0.89342(14) 0.49370(14)
C1 C 0.79046(14) 0.90833(16) 0.48611(17)
H1 H 0.7934 0.9113 0.4733
N2 N 0.77717(12) 0.91962(12) 0.49486(13)
C2 C 0.77445(16) 0.91400(18) 0.51318(16)
C3 C 0.78367(16) 0.89825(18) 0.52318(17)
C4 C 0.79683(19) 0.88844(19) 0.51317(19)
N3 N 0.77621(13) 0.89588(15) 0.54166(12)
C5 C 0.76358(17) 0.91084(17) 0.54169(18)
H5 H 0.7563 0.9136 0.5527
N4 N 0.76165(13) 0.92179(14) 0.52558(14)
N5 N 0.80668(13) 0.87346(15) 0.52191(12)
H10A H 0.8043 0.8705 0.5338
H10B H 0.8152 0.8671 0.5155
C11 C 0.7791(2) 0.9455(2) 0.4473(2)
O11A O 0.77316(16) 0.95520(17) 0.46104(14)
O11B O 0.77756(17) 0.92792(16) 0.44581(15)
C12 C 0.79023(17) 0.9561(2) 0.43176(18)
C13 C 0.7988(2) 0.94656(19) 0.41717(18)
H13 H 0.7982 0.9331 0.4168
C14 C 0.8088(2) 0.95649(18) 0.40233(19)
H14 H 0.8144 0.9495 0.3922
C15 C 0.8105(2) 0.97581(19) 0.40267(18)
C16 C 0.8029(3) 0.9848(2) 0.4181(2)
H16 H 0.8053 0.9980 0.4197
C17 C 0.7916(3) 0.9754(2) 0.4321(2)
H17 H 0.7851 0.9825 0.4416
C21 C 0.8512(2) 1.0178(2) 0.3430(2)
O21A O 0.86193(12) 1.00832(11) 0.33232(10)
O21B O 0.8504(2) 1.03525(14) 0.34167(18)
C22 C 0.84038(17) 1.00668(19) 0.35843(17)
C23 C 0.8401(2) 0.98774(18) 0.35877(18)
H23 H 0.8466 0.9808 0.3492
C24 C 0.8302(2) 0.97766(19) 0.3735(2)
H24 H 0.8300 0.9642 0.3732
C25 C 0.8210(2) 0.9866(2) 0.38786(18)
C26 C 0.8204(3) 1.0060(2) 0.3869(2)
H26 H 0.8129 1.0130 0.3956
C27 C 0.8309(3) 1.0156(2) 0.3728(2)
H27 H 0.8315 1.0291 0.3733
Zn1 Zn 0.81033(2) 1.01054(2) 0.22986(2)
Zn1 Zn 0.73946(2) 0.93967(2) 0.52014(2)
Zn2 Zn 0.775396(18) 0.87578(2) 0.563116(18)
Zn2 Zn 0.87422(2) 1.025396(18) 0.313116(18)
Zn2 Zn 0.724604(18) 0.87578(2) 0.436884(18)
Zn2 Zn 0.87422(2) 0.974604(18) 0.186884(18)
N3 N 0.89588(15) 0.95834(12) 0.27621(13)
N3 N 0.79166(12) 0.85412(15) 0.47379(13)
N4 N 0.82821(14) 1.01165(13) 0.27558(14)
N4 N 0.73835(13) 0.92179(14) 0.47442(14)
O1 O 0.7500 0.95618(13) 0.5000
O21A O 0.83232(10) 0.86193(12) 0.49168(11)
O21A O 0.88807(12) 0.91768(10) 0.25832(11)
Zn1 Zn 0.22986(2) 0.18967(2) 0.48946(2)
Zn2 Zn 0.224604(18) 0.12422(2) 0.436884(18)
N1 N 0.24370(14) 0.14342(14) 0.45012(12)
C1 C 0.23611(17) 0.15833(16) 0.45954(14)
H1 H 0.2233 0.1613 0.4566
N2 N 0.24486(13) 0.16962(12) 0.47283(12)
C2 C 0.26318(16) 0.16400(18) 0.47555(16)
C3 C 0.27318(17) 0.14825(18) 0.46633(16)
C4 C 0.26317(19) 0.13844(19) 0.45317(19)
N3 N 0.29166(12) 0.14588(15) 0.47379(13)
C5 C 0.29169(18) 0.16084(17) 0.48642(17)
H5 H 0.3027 0.1636 0.4937
N4 N 0.27558(14) 0.17179(14) 0.48835(13)
N5 N 0.27191(12) 0.12346(15) 0.44332(13)
H10A H 0.2838 0.1205 0.4457
H10B H 0.2655 0.1171 0.4348
O1 O 0.2500 0.20618(13) 0.5000
C11 C 0.1973(2) 0.1955(2) 0.4709(2)
O11A O 0.21104(14) 0.20520(17) 0.47684(16)
O11B O 0.19581(15) 0.17792(16) 0.47244(17)
C12 C 0.18176(18) 0.2061(2) 0.45977(17)
C13 C 0.16717(18) 0.19656(19) 0.4512(2)
H13 H 0.1668 0.1831 0.4518
C14 C 0.15233(19) 0.20649(18) 0.4412(2)
H14 H 0.1422 0.1995 0.4356
C15 C 0.15267(18) 0.22581(19) 0.4395(2)
C16 C 0.1681(2) 0.2348(2) 0.4471(3)
H16 H 0.1697 0.2480 0.4447
C17 C 0.1821(2) 0.2254(2) 0.4584(3)
H17 H 0.1916 0.2325 0.4649
C21 C 0.0930(2) 0.2678(2) 0.3988(2)
O21A O 0.08232(10) 0.25832(11) 0.38807(12)
O21B O 0.09167(18) 0.28525(14) 0.3996(2)
C22 C 0.10843(17) 0.25668(19) 0.40962(17)
C23 C 0.10877(18) 0.23774(18) 0.4099(2)
H23 H 0.0992 0.2308 0.4034
C24 C 0.1235(2) 0.22766(19) 0.4198(2)
H24 H 0.1232 0.2142 0.4200
C25 C 0.13786(18) 0.2366(2) 0.4290(2)
C26 C 0.1369(2) 0.2560(2) 0.4296(3)
H26 H 0.1456 0.2630 0.4371
C27 C 0.1228(2) 0.2656(2) 0.4191(3)
H27 H 0.1233 0.2791 0.4185
C31 C 0.1952(2) 0.1457(2) 0.4252(2)
O31A O 0.19874(11) 0.13372(14) 0.43832(11)
O31B O 0.20772(12) 0.15138(18) 0.41450(14)
C32 C 0.17411(17) 0.15106(15) 0.42114(16)
C33 C 0.16913(18) 0.16246(18) 0.40605(19)
H33 H 0.1788 0.1676 0.3982
C34 C 0.14982(18) 0.1666(2) 0.40208(19)
H34A H 0.1466 0.1743 0.3915
C35 C 0.13582(16) 0.15948(17) 0.41367(18)
C36 C 0.14068(18) 0.14821(17) 0.42890(17)
H36A H 0.1310 0.1434 0.4369
C37 C 0.16000(16) 0.14380(18) 0.43270(17)
H37A H 0.1632 0.1359 0.4431
C31 C 0.0548(2) 0.1752(2) 0.3957(2)
O31A O 0.05126(11) 0.18832(11) 0.38372(14)
O31B O 0.04228(12) 0.16450(14) 0.40138(18)
C32 C 0.07589(17) 0.17114(16) 0.40106(15)
C33 C 0.08087(18) 0.15605(19) 0.41246(18)
H33 H 0.0712 0.1482 0.4176
C34 C 0.10018(18) 0.15208(19) 0.4166(2)
H34A H 0.1034 0.1415 0.4243
C35 C 0.11418(16) 0.16367(18) 0.40948(17)
C36 C 0.10932(18) 0.17890(17) 0.39821(17)
H36A H 0.1190 0.1869 0.3934
C37 C 0.09000(16) 0.18270(17) 0.39380(18)
H37A H 0.0868 0.1931 0.3859
Zn1 Zn 0.02014(2) 0.23946(2) 0.43967(2)
Zn2 Zn 0.025396(18) 0.186884(18) 0.37422(2)
N1 N 0.00630(14) 0.20012(12) 0.39342(14)
C1 C 0.01389(17) 0.20954(14) 0.40833(16)
H1 H 0.0267 0.2066 0.4113
N2 N 0.00514(13) 0.22283(12) 0.41962(12)
C2 C -0.01318(16) 0.22555(16) 0.41400(18)
C3 C -0.02318(17) 0.21633(16) 0.39825(18)
C4 C -0.01317(19) 0.20317(19) 0.38844(19)
N3 N -0.04166(12) 0.22379(13) 0.39588(15)
C5 C -0.04169(18) 0.23642(17) 0.41084(17)
H5 H -0.0527 0.2437 0.4136
N4 N -0.02558(14) 0.23835(13) 0.42179(14)
N5 N -0.02191(12) 0.19332(13) 0.37346(15)
H10A H -0.0338 0.1957 0.3705
H10B H -0.0155 0.1848 0.3671
C11 C 0.0527(2) 0.2209(2) 0.4455(2)
O11A O 0.03896(14) 0.22684(16) 0.45520(17)
O11B O 0.05419(15) 0.22244(17) 0.42792(16)
C12 C 0.06824(18) 0.20977(17) 0.4561(2)
C13 C 0.08283(18) 0.2012(2) 0.44656(19)
H13 H 0.0832 0.2018 0.4331
C14 C 0.09767(19) 0.1912(2) 0.45649(18)
H14 H 0.1078 0.1856 0.4495
C15 C 0.09733(18) 0.1895(2) 0.47581(19)
C16 C 0.0819(2) 0.1971(3) 0.4848(2)
H16 H 0.0803 0.1947 0.4980
C17 C 0.0679(2) 0.2084(3) 0.4754(2)
H17 H 0.0584 0.2149 0.4825
C21 C 0.1570(2) 0.1488(2) 0.5178(2)
O21A O 0.16768(10) 0.13807(12) 0.50832(11)
O21B O 0.15833(18) 0.1496(2) 0.53525(14)
C22 C 0.14157(17) 0.15962(17) 0.50668(19)
C23 C 0.14123(18) 0.1599(2) 0.48774(18)
H23 H 0.1508 0.1534 0.4808
C24 C 0.1265(2) 0.1698(2) 0.47766(19)
H24 H 0.1268 0.1700 0.4642
C25 C 0.11214(18) 0.1790(2) 0.4866(2)
C26 C 0.1131(2) 0.1796(3) 0.5060(2)
H26 H 0.1044 0.1871 0.5130
C27 C 0.1272(2) 0.1691(3) 0.5156(2)
H27 H 0.1267 0.1685 0.5291
Zn1 Zn 0.27014(2) 0.18967(2) 0.51054(2)
Zn1 Zn -0.02014(2) 0.26054(2) 0.43967(2)
Zn2 Zn -0.063116(18) 0.224604(18) 0.37578(2)
Zn2 Zn 0.186884(18) 0.12578(2) 0.525396(18)
Zn2 Zn 0.063116(18) 0.275396(18) 0.37578(2)
Zn2 Zn 0.313116(18) 0.12578(2) 0.474604(18)
N3 N 0.22379(13) 0.10412(15) 0.45834(12)
N3 N 0.02621(13) 0.20834(12) 0.35412(15)
N4 N 0.22442(14) 0.17179(14) 0.51165(13)
N4 N 0.02558(14) 0.26165(13) 0.42179(14)
O1 O 0.0000 0.2500 0.45618(13)
O21A O 0.00832(11) 0.16768(10) 0.36193(12)
O21A O 0.24168(11) 0.11193(12) 0.41768(10)
Zn1 Zn 0.77014(2) 0.68967(2) 0.01054(2)
Zn2 Zn 0.775396(18) 0.62422(2) 0.063116(18)
N1 N 0.75630(14) 0.64342(14) 0.04988(12)
C1 C 0.76389(17) 0.65833(16) 0.04046(14)
H1 H 0.7767 0.6613 0.0434
N2 N 0.75514(13) 0.66962(12) 0.02717(12)
C2 C 0.73682(16) 0.66400(18) 0.02445(16)
C3 C 0.72682(17) 0.64825(18) 0.03367(16)
C4 C 0.73683(19) 0.63844(19) 0.04683(19)
N3 N 0.70834(12) 0.64588(15) 0.02621(13)
C5 C 0.70831(18) 0.66084(17) 0.01358(17)
H5 H 0.6973 0.6636 0.0063
N4 N 0.72442(14) 0.67179(14) 0.01165(13)
N5 N 0.72809(12) 0.62346(15) 0.05668(13)
H10A H 0.7162 0.6205 0.0543
H10B H 0.7345 0.6171 0.0652
O1 O 0.7500 0.70618(13) 0.0000
C11 C 0.8027(2) 0.6955(2) 0.0291(2)
O11A O 0.78896(14) 0.70520(17) 0.02316(16)
O11B O 0.80419(15) 0.67792(16) 0.02756(17)
C12 C 0.81824(18) 0.7061(2) 0.04023(17)
C13 C 0.83283(18) 0.69656(19) 0.0488(2)
H13 H 0.8332 0.6831 0.0482
C14 C 0.84767(19) 0.70649(18) 0.0588(2)
H14 H 0.8578 0.6995 0.0644
C15 C 0.84733(18) 0.72581(19) 0.0605(2)
C16 C 0.8319(2) 0.7348(2) 0.0529(3)
H16 H 0.8303 0.7480 0.0553
C17 C 0.8179(2) 0.7254(2) 0.0416(3)
H17 H 0.8084 0.7325 0.0351
C21 C 0.9070(2) 0.7678(2) 0.1012(2)
O21A O 0.91768(10) 0.75832(11) 0.11193(12)
O21B O 0.90833(18) 0.78525(14) 0.1004(2)
C22 C 0.89157(17) 0.75668(19) 0.09038(17)
C23 C 0.89123(18) 0.73774(18) 0.0901(2)
H23 H 0.9008 0.7308 0.0966
C24 C 0.8765(2) 0.72766(19) 0.0802(2)
H24 H 0.8768 0.7142 0.0800
C25 C 0.86214(18) 0.7366(2) 0.0710(2)
C26 C 0.8631(2) 0.7560(2) 0.0704(3)
H26 H 0.8544 0.7630 0.0629
C27 C 0.8772(2) 0.7656(2) 0.0809(3)
H27 H 0.8767 0.7791 0.0815
C31 C 0.8048(2) 0.6457(2) 0.0748(2)
O31A O 0.80126(11) 0.63372(14) 0.06168(11)
O31B O 0.79228(12) 0.65138(18) 0.08550(14)
C32 C 0.82589(17) 0.65106(15) 0.07886(16)
C33 C 0.83087(18) 0.66246(18) 0.09395(19)
H33 H 0.8212 0.6676 0.1018
C34 C 0.85018(18) 0.6666(2) 0.09792(19)
H34A H 0.8534 0.6743 0.1085
C35 C 0.86418(16) 0.65948(17) 0.08633(18)
C36 C 0.85932(18) 0.64821(17) 0.07110(17)
H36A H 0.8690 0.6434 0.0631
C37 C 0.84000(16) 0.64380(18) 0.06730(17)
H37A H 0.8368 0.6359 0.0569
C31 C 0.9452(2) 0.6752(2) 0.1043(2)
O31A O 0.94874(11) 0.68832(11) 0.11628(14)
O31B O 0.95772(12) 0.66450(14) 0.09862(18)
C32 C 0.92411(17) 0.67114(16) 0.09894(15)
C33 C 0.91913(18) 0.65605(19) 0.08754(18)
H33 H 0.9288 0.6482 0.0824
C34 C 0.89982(18) 0.65208(19) 0.0834(2)
H34A H 0.8966 0.6415 0.0757
C35 C 0.88582(16) 0.66367(18) 0.09052(17)
C36 C 0.89068(18) 0.67890(17) 0.10179(17)
H36A H 0.8810 0.6869 0.1066
C37 C 0.91000(16) 0.68270(17) 0.10620(18)
H37A H 0.9132 0.6931 0.1141
Zn1 Zn 0.97986(2) 0.73946(2) 0.06033(2)
Zn2 Zn 0.974604(18) 0.686884(18) 0.12578(2)
N1 N 0.99370(14) 0.70012(12) 0.10658(14)
C1 C 0.98611(17) 0.70954(14) 0.09167(16)
H1 H 0.9733 0.7066 0.0887
N2 N 0.99486(13) 0.72283(12) 0.08038(12)
C2 C 1.01318(16) 0.72555(16) 0.08600(18)
C3 C 1.02318(17) 0.71633(16) 0.10175(18)
C4 C 1.01317(19) 0.70317(19) 0.11156(19)
N3 N 1.04166(12) 0.72379(13) 0.10412(15)
C5 C 1.04169(18) 0.73642(17) 0.08916(17)
H5 H 1.0527 0.7437 0.0864
N4 N 1.02558(14) 0.73835(13) 0.07821(14)
N5 N 1.02191(12) 0.69332(13) 0.12654(15)
H10A H 1.0338 0.6957 0.1295
H10B H 1.0155 0.6848 0.1329
C11 C 0.9473(2) 0.7209(2) 0.0545(2)
O11A O 0.96104(14) 0.72684(16) 0.04480(17)
O11B O 0.94581(15) 0.72244(17) 0.07208(16)
C12 C 0.93176(18) 0.70977(17) 0.0439(2)
C13 C 0.91717(18) 0.7012(2) 0.05344(19)
H13 H 0.9168 0.7018 0.0669
C14 C 0.90233(19) 0.6912(2) 0.04351(18)
H14 H 0.8922 0.6856 0.0505
C15 C 0.90267(18) 0.6895(2) 0.02419(19)
C16 C 0.9181(2) 0.6971(3) 0.0152(2)
H16 H 0.9197 0.6947 0.0020
C17 C 0.9321(2) 0.7084(3) 0.0246(2)
H17 H 0.9416 0.7149 0.0175
C21 C 0.8430(2) 0.6488(2) -0.0178(2)
O21A O 0.83232(10) 0.63807(12) -0.00832(11)
O21B O 0.84167(18) 0.6496(2) -0.03525(14)
C22 C 0.85843(17) 0.65962(17) -0.00668(19)
C23 C 0.85877(18) 0.6599(2) 0.01226(18)
H23 H 0.8492 0.6534 0.0192
C24 C 0.8735(2) 0.6698(2) 0.02234(19)
H24 H 0.8732 0.6700 0.0358
C25 C 0.88786(18) 0.6790(2) 0.0134(2)
C26 C 0.8869(2) 0.6796(3) -0.0060(2)
H26 H 0.8956 0.6871 -0.0130
C27 C 0.8728(2) 0.6691(3) -0.0156(2)
H27 H 0.8733 0.6685 -0.0291
Zn1 Zn 0.72986(2) 0.68967(2) -0.01054(2)
Zn1 Zn 1.02014(2) 0.76054(2) 0.06033(2)
Zn2 Zn 1.063116(18) 0.724604(18) 0.12422(2)
Zn2 Zn 0.813116(18) 0.62578(2) -0.025396(18)
Zn2 Zn 0.936884(18) 0.775396(18) 0.12422(2)
Zn2 Zn 0.686884(18) 0.62578(2) 0.025396(18)
N3 N 0.77621(13) 0.60412(15) 0.04166(12)
N3 N 0.97379(13) 0.70834(12) 0.14588(15)
N4 N 0.77558(14) 0.67179(14) -0.01165(13)
N4 N 0.97442(14) 0.76165(13) 0.07821(14)
O1 O 1.0000 0.7500 0.04382(13)
O21A O 0.99168(11) 0.66768(10) 0.13807(12)
O21A O 0.75832(11) 0.61193(12) 0.08232(10)
Zn1 Zn 0.72986(2) 0.31033(2) 0.51054(2)
Zn2 Zn 0.724604(18) 0.37578(2) 0.563116(18)
N1 N 0.74370(14) 0.35658(14) 0.54988(12)
C1 C 0.73611(17) 0.34167(16) 0.54046(14)
H1 H 0.7233 0.3387 0.5434
N2 N 0.74486(13) 0.33038(12) 0.52717(12)
C2 C 0.76318(16) 0.33600(18) 0.52445(16)
C3 C 0.77318(17) 0.35175(18) 0.53367(16)
C4 C 0.76317(19) 0.36156(19) 0.54683(19)
N3 N 0.79166(12) 0.35412(15) 0.52621(13)
C5 C 0.79169(18) 0.33916(17) 0.51358(17)
H5 H 0.8027 0.3364 0.5063
N4 N 0.77558(14) 0.32821(14) 0.51165(13)
N5 N 0.77191(12) 0.37654(15) 0.55668(13)
H10A H 0.7838 0.3795 0.5543
H10B H 0.7655 0.3829 0.5652
O1 O 0.7500 0.29382(13) 0.5000
C11 C 0.6973(2) 0.3045(2) 0.5291(2)
O11A O 0.71104(14) 0.29480(17) 0.52316(16)
O11B O 0.69581(15) 0.32208(16) 0.52756(17)
C12 C 0.68176(18) 0.2939(2) 0.54023(17)
C13 C 0.66717(18) 0.30344(19) 0.5488(2)
H13 H 0.6668 0.3169 0.5482
C14 C 0.65233(19) 0.29351(18) 0.5588(2)
H14 H 0.6422 0.3005 0.5644
C15 C 0.65267(18) 0.27419(19) 0.5605(2)
C16 C 0.6681(2) 0.2652(2) 0.5529(3)
H16 H 0.6697 0.2520 0.5553
C17 C 0.6821(2) 0.2746(2) 0.5416(3)
H17 H 0.6916 0.2675 0.5351
C21 C 0.5930(2) 0.2322(2) 0.6012(2)
O21A O 0.58232(10) 0.24168(11) 0.61193(12)
O21B O 0.59167(18) 0.21475(14) 0.6004(2)
C22 C 0.60843(17) 0.24332(19) 0.59038(17)
C23 C 0.60877(18) 0.26226(18) 0.5901(2)
H23 H 0.5992 0.2692 0.5966
C24 C 0.6235(2) 0.27234(19) 0.5802(2)
H24 H 0.6232 0.2858 0.5800
C25 C 0.63786(18) 0.2634(2) 0.5710(2)
C26 C 0.6369(2) 0.2440(2) 0.5704(3)
H26 H 0.6456 0.2370 0.5629
C27 C 0.6228(2) 0.2344(2) 0.5809(3)
H27 H 0.6233 0.2209 0.5815
C31 C 0.6952(2) 0.3543(2) 0.5748(2)
O31A O 0.69874(11) 0.36628(14) 0.56168(11)
O31B O 0.70772(12) 0.34862(18) 0.58550(14)
C32 C 0.67411(17) 0.34894(15) 0.57886(16)
C33 C 0.66913(18) 0.33754(18) 0.59395(19)
H33 H 0.6788 0.3324 0.6018
C34 C 0.64982(18) 0.3334(2) 0.59792(19)
H34A H 0.6466 0.3257 0.6085
C35 C 0.63582(16) 0.34052(17) 0.58633(18)
C36 C 0.64068(18) 0.35179(17) 0.57110(17)
H36A H 0.6310 0.3566 0.5631
C37 C 0.66000(16) 0.35620(18) 0.56730(17)
H37A H 0.6632 0.3641 0.5569
C31 C 0.5548(2) 0.3248(2) 0.6043(2)
O31A O 0.55126(11) 0.31168(11) 0.61628(14)
O31B O 0.54228(12) 0.33550(14) 0.59862(18)
C32 C 0.57589(17) 0.32886(16) 0.59894(15)
C33 C 0.58087(18) 0.34395(19) 0.58754(18)
H33 H 0.5712 0.3518 0.5824
C34 C 0.60018(18) 0.34792(19) 0.5834(2)
H34A H 0.6034 0.3585 0.5757
C35 C 0.61418(16) 0.33633(18) 0.59052(17)
C36 C 0.60932(18) 0.32110(17) 0.60179(17)
H36A H 0.6190 0.3131 0.6066
C37 C 0.59000(16) 0.31730(17) 0.60620(18)
H37A H 0.5868 0.3069 0.6141
Zn1 Zn 0.52014(2) 0.26054(2) 0.56033(2)
Zn2 Zn 0.525396(18) 0.313116(18) 0.62578(2)
N1 N 0.50630(14) 0.29988(12) 0.60658(14)
C1 C 0.51389(17) 0.29046(14) 0.59167(16)
H1 H 0.5267 0.2934 0.5887
N2 N 0.50514(13) 0.27717(12) 0.58038(12)
C2 C 0.48682(16) 0.27445(16) 0.58600(18)
C3 C 0.47682(17) 0.28367(16) 0.60175(18)
C4 C 0.48683(19) 0.29683(19) 0.61156(19)
N3 N 0.45834(12) 0.27621(13) 0.60412(15)
C5 C 0.45831(18) 0.26358(17) 0.58916(17)
H5 H 0.4473 0.2563 0.5864
N4 N 0.47442(14) 0.26165(13) 0.57821(14)
N5 N 0.47809(12) 0.30668(13) 0.62654(15)
H10A H 0.4662 0.3043 0.6295
H10B H 0.4845 0.3152 0.6329
C11 C 0.5527(2) 0.2791(2) 0.5545(2)
O11A O 0.53896(14) 0.27316(16) 0.54480(17)
O11B O 0.55419(15) 0.27756(17) 0.57208(16)
C12 C 0.56824(18) 0.29023(17) 0.5439(2)
C13 C 0.58283(18) 0.2988(2) 0.55344(19)
H13 H 0.5832 0.2982 0.5669
C14 C 0.59767(19) 0.3088(2) 0.54351(18)
H14 H 0.6078 0.3144 0.5505
C15 C 0.59733(18) 0.3105(2) 0.52419(19)
C16 C 0.5819(2) 0.3029(3) 0.5152(2)
H16 H 0.5803 0.3053 0.5020
C17 C 0.5679(2) 0.2916(3) 0.5246(2)
H17 H 0.5584 0.2851 0.5175
C21 C 0.6570(2) 0.3512(2) 0.4822(2)
O21A O 0.66768(10) 0.36193(12) 0.49168(11)
O21B O 0.65833(18) 0.3504(2) 0.46475(14)
C22 C 0.64157(17) 0.34038(17) 0.49332(19)
C23 C 0.64123(18) 0.3401(2) 0.51226(18)
H23 H 0.6508 0.3466 0.5192
C24 C 0.6265(2) 0.3302(2) 0.52234(19)
H24 H 0.6268 0.3300 0.5358
C25 C 0.61214(18) 0.3210(2) 0.5134(2)
C26 C 0.6131(2) 0.3204(3) 0.4940(2)
H26 H 0.6044 0.3129 0.4870
C27 C 0.6272(2) 0.3309(3) 0.4844(2)
H27 H 0.6267 0.3315 0.4709
Zn1 Zn 0.77014(2) 0.31033(2) 0.48946(2)
Zn1 Zn 0.47986(2) 0.23946(2) 0.56033(2)
Zn2 Zn 0.436884(18) 0.275396(18) 0.62422(2)
Zn2 Zn 0.686884(18) 0.37422(2) 0.474604(18)
Zn2 Zn 0.563116(18) 0.224604(18) 0.62422(2)
Zn2 Zn 0.813116(18) 0.37422(2) 0.525396(18)
N3 N 0.72379(13) 0.39588(15) 0.54166(12)
N3 N 0.52621(13) 0.29166(12) 0.64588(15)
N4 N 0.72442(14) 0.32821(14) 0.48835(13)
N4 N 0.52558(14) 0.23835(13) 0.57821(14)
O1 O 0.5000 0.2500 0.54382(13)
O21A O 0.50832(11) 0.33232(10) 0.63807(12)
O21A O 0.74168(11) 0.38807(12) 0.58232(10)
Zn1 Zn 0.27014(2) 0.81033(2) 0.98946(2)
Zn2 Zn 0.275396(18) 0.87578(2) 0.936884(18)
N1 N 0.25630(14) 0.85658(14) 0.95012(12)
C1 C 0.26389(17) 0.84167(16) 0.95954(14)
H1 H 0.2767 0.8387 0.9566
N2 N 0.25514(13) 0.83038(12) 0.97283(12)
C2 C 0.23682(16) 0.83600(18) 0.97555(16)
C3 C 0.22682(17) 0.85175(18) 0.96633(16)
C4 C 0.23683(19) 0.86156(19) 0.95317(19)
N3 N 0.20834(12) 0.85412(15) 0.97379(13)
C5 C 0.20831(18) 0.83916(17) 0.98642(17)
H5 H 0.1973 0.8364 0.9937
N4 N 0.22442(14) 0.82821(14) 0.98835(13)
N5 N 0.22809(12) 0.87654(15) 0.94332(13)
H10A H 0.2162 0.8795 0.9457
H10B H 0.2345 0.8829 0.9348
O1 O 0.2500 0.79382(13) 1.0000
C11 C 0.3027(2) 0.8045(2) 0.9709(2)
O11A O 0.28896(14) 0.79480(17) 0.97684(16)
O11B O 0.30419(15) 0.82208(16) 0.97244(17)
C12 C 0.31824(18) 0.7939(2) 0.95977(17)
C13 C 0.33283(18) 0.80344(19) 0.9512(2)
H13 H 0.3332 0.8169 0.9518
C14 C 0.34767(19) 0.79351(18) 0.9412(2)
H14 H 0.3578 0.8005 0.9356
C15 C 0.34733(18) 0.77419(19) 0.9395(2)
C16 C 0.3319(2) 0.7652(2) 0.9471(3)
H16 H 0.3303 0.7520 0.9447
C17 C 0.3179(2) 0.7746(2) 0.9584(3)
H17 H 0.3084 0.7675 0.9649
C21 C 0.4070(2) 0.7322(2) 0.8988(2)
O21A O 0.41768(10) 0.74168(11) 0.88807(12)
O21B O 0.40833(18) 0.71475(14) 0.8996(2)
C22 C 0.39157(17) 0.74332(19) 0.90962(17)
C23 C 0.39123(18) 0.76226(18) 0.9099(2)
H23 H 0.4008 0.7692 0.9034
C24 C 0.3765(2) 0.77234(19) 0.9198(2)
H24 H 0.3768 0.7858 0.9200
C25 C 0.36214(18) 0.7634(2) 0.9290(2)
C26 C 0.3631(2) 0.7440(2) 0.9296(3)
H26 H 0.3544 0.7370 0.9371
C27 C 0.3772(2) 0.7344(2) 0.9191(3)
H27 H 0.3767 0.7209 0.9185
C31 C 0.3048(2) 0.8543(2) 0.9252(2)
O31A O 0.30126(11) 0.86628(14) 0.93832(11)
O31B O 0.29228(12) 0.84862(18) 0.91450(14)
C32 C 0.32589(17) 0.84894(15) 0.92114(16)
C33 C 0.33087(18) 0.83754(18) 0.90605(19)
H33 H 0.3212 0.8324 0.8982
C34 C 0.35018(18) 0.8334(2) 0.90208(19)
H34A H 0.3534 0.8257 0.8915
C35 C 0.36418(16) 0.84052(17) 0.91367(18)
C36 C 0.35932(18) 0.85179(17) 0.92890(17)
H36A H 0.3690 0.8566 0.9369
C37 C 0.34000(16) 0.85620(18) 0.93270(17)
H37A H 0.3368 0.8641 0.9431
C31 C 0.4452(2) 0.8248(2) 0.8957(2)
O31A O 0.44874(11) 0.81168(11) 0.88372(14)
O31B O 0.45772(12) 0.83550(14) 0.90138(18)
C32 C 0.42411(17) 0.82886(16) 0.90106(15)
C33 C 0.41913(18) 0.84395(19) 0.91246(18)
H33 H 0.4288 0.8518 0.9176
C34 C 0.39982(18) 0.84792(19) 0.9166(2)
H34A H 0.3966 0.8585 0.9243
C35 C 0.38582(16) 0.83633(18) 0.90948(17)
C36 C 0.39068(18) 0.82110(17) 0.89821(17)
H36A H 0.3810 0.8131 0.8934
C37 C 0.41000(16) 0.81730(17) 0.89380(18)
H37A H 0.4132 0.8069 0.8859
Zn1 Zn 0.47986(2) 0.76054(2) 0.93967(2)
Zn2 Zn 0.474604(18) 0.813116(18) 0.87422(2)
N1 N 0.49370(14) 0.79988(12) 0.89342(14)
C1 C 0.48611(17) 0.79046(14) 0.90833(16)
H1 H 0.4733 0.7934 0.9113
N2 N 0.49486(13) 0.77717(12) 0.91962(12)
C2 C 0.51318(16) 0.77445(16) 0.91400(18)
C3 C 0.52318(17) 0.78367(16) 0.89825(18)
C4 C 0.51317(19) 0.79683(19) 0.88844(19)
N3 N 0.54166(12) 0.77621(13) 0.89588(15)
C5 C 0.54169(18) 0.76358(17) 0.91084(17)
H5 H 0.5527 0.7563 0.9136
N4 N 0.52558(14) 0.76165(13) 0.92179(14)
N5 N 0.52191(12) 0.80668(13) 0.87346(15)
H10A H 0.5338 0.8043 0.8705
H10B H 0.5155 0.8152 0.8671
C11 C 0.4473(2) 0.7791(2) 0.9455(2)
O11A O 0.46104(14) 0.77316(16) 0.95520(17)
O11B O 0.44581(15) 0.77756(17) 0.92792(16)
C12 C 0.43176(18) 0.79023(17) 0.9561(2)
C13 C 0.41717(18) 0.7988(2) 0.94656(19)
H13 H 0.4168 0.7982 0.9331
C14 C 0.40233(19) 0.8088(2) 0.95649(18)
H14 H 0.3922 0.8144 0.9495
C15 C 0.40267(18) 0.8105(2) 0.97581(19)
C16 C 0.4181(2) 0.8029(3) 0.9848(2)
H16 H 0.4197 0.8053 0.9980
C17 C 0.4321(2) 0.7916(3) 0.9754(2)
H17 H 0.4416 0.7851 0.9825
C21 C 0.3430(2) 0.8512(2) 1.0178(2)
O21A O 0.33232(10) 0.86193(12) 1.00832(11)
O21B O 0.34167(18) 0.8504(2) 1.03525(14)
C22 C 0.35843(17) 0.84038(17) 1.00668(19)
C23 C 0.35877(18) 0.8401(2) 0.98774(18)
H23 H 0.3492 0.8466 0.9808
C24 C 0.3735(2) 0.8302(2) 0.97766(19)
H24 H 0.3732 0.8300 0.9642
C25 C 0.38786(18) 0.8210(2) 0.9866(2)
C26 C 0.3869(2) 0.8204(3) 1.0060(2)
H26 H 0.3956 0.8129 1.0130
C27 C 0.3728(2) 0.8309(3) 1.0156(2)
H27 H 0.3733 0.8315 1.0291
Zn1 Zn 0.22986(2) 0.81033(2) 1.01054(2)
Zn1 Zn 0.52014(2) 0.73946(2) 0.93967(2)
Zn2 Zn 0.563116(18) 0.775396(18) 0.87578(2)
Zn2 Zn 0.313116(18) 0.87422(2) 1.025396(18)
Zn2 Zn 0.436884(18) 0.724604(18) 0.87578(2)
Zn2 Zn 0.186884(18) 0.87422(2) 0.974604(18)
N3 N 0.27621(13) 0.89588(15) 0.95834(12)
N3 N 0.47379(13) 0.79166(12) 0.85412(15)
N4 N 0.27558(14) 0.82821(14) 1.01165(13)
N4 N 0.47442(14) 0.73835(13) 0.92179(14)
O1 O 0.5000 0.7500 0.95618(13)
O21A O 0.49168(11) 0.83232(10) 0.86193(12)
O21A O 0.25832(11) 0.88807(12) 0.91768(10)
Zn1 Zn 0.98946(2) 0.72986(2) 0.68967(2)
Zn2 Zn 0.936884(18) 0.724604(18) 0.62422(2)
N1 N 0.95012(12) 0.74370(14) 0.64342(14)
C1 C 0.95954(14) 0.73611(17) 0.65833(16)
H1 H 0.9566 0.7233 0.6613
N2 N 0.97283(12) 0.74486(13) 0.66962(12)
C2 C 0.97555(16) 0.76318(16) 0.66400(18)
C3 C 0.96633(16) 0.77318(17) 0.64825(18)
C4 C 0.95317(19) 0.76317(19) 0.63844(19)
N3 N 0.97379(13) 0.79166(12) 0.64588(15)
C5 C 0.98642(17) 0.79169(18) 0.66084(17)
H5 H 0.9937 0.8027 0.6636
N4 N 0.98835(13) 0.77558(14) 0.67179(14)
N5 N 0.94332(13) 0.77191(12) 0.62346(15)
H10A H 0.9457 0.7838 0.6205
H10B H 0.9348 0.7655 0.6171
O1 O 1.0000 0.7500 0.70618(13)
C11 C 0.9709(2) 0.6973(2) 0.6955(2)
O11A O 0.97684(16) 0.71104(14) 0.70520(17)
O11B O 0.97244(17) 0.69581(15) 0.67792(16)
C12 C 0.95977(17) 0.68176(18) 0.7061(2)
C13 C 0.9512(2) 0.66717(18) 0.69656(19)
H13 H 0.9518 0.6668 0.6831
C14 C 0.9412(2) 0.65233(19) 0.70649(18)
H14 H 0.9356 0.6422 0.6995
C15 C 0.9395(2) 0.65267(18) 0.72581(19)
C16 C 0.9471(3) 0.6681(2) 0.7348(2)
H16 H 0.9447 0.6697 0.7480
C17 C 0.9584(3) 0.6821(2) 0.7254(2)
H17 H 0.9649 0.6916 0.7325
C21 C 0.8988(2) 0.5930(2) 0.7678(2)
O21A O 0.88807(12) 0.58232(10) 0.75832(11)
O21B O 0.8996(2) 0.59167(18) 0.78525(14)
C22 C 0.90962(17) 0.60843(17) 0.75668(19)
C23 C 0.9099(2) 0.60877(18) 0.73774(18)
H23 H 0.9034 0.5992 0.7308
C24 C 0.9198(2) 0.6235(2) 0.72766(19)
H24 H 0.9200 0.6232 0.7142
C25 C 0.9290(2) 0.63786(18) 0.7366(2)
C26 C 0.9296(3) 0.6369(2) 0.7560(2)
H26 H 0.9371 0.6456 0.7630
C27 C 0.9191(3) 0.6228(2) 0.7656(2)
H27 H 0.9185 0.6233 0.7791
C31 C 0.9252(2) 0.6952(2) 0.6457(2)
O31A O 0.93832(11) 0.69874(11) 0.63372(14)
O31B O 0.91450(14) 0.70772(12) 0.65138(18)
C32 C 0.92114(16) 0.67411(17) 0.65106(15)
C33 C 0.90605(19) 0.66913(18) 0.66246(18)
H33 H 0.8982 0.6788 0.6676
C34 C 0.90208(19) 0.64982(18) 0.6666(2)
H34A H 0.8915 0.6466 0.6743
C35 C 0.91367(18) 0.63582(16) 0.65948(17)
C36 C 0.92890(17) 0.64068(18) 0.64821(17)
H36A H 0.9369 0.6310 0.6434
C37 C 0.93270(17) 0.66000(16) 0.64380(18)
H37A H 0.9431 0.6632 0.6359
C31 C 0.8957(2) 0.5548(2) 0.6752(2)
O31A O 0.88372(14) 0.55126(11) 0.68832(11)
O31B O 0.90138(18) 0.54228(12) 0.66450(14)
C32 C 0.90106(15) 0.57589(17) 0.67114(16)
C33 C 0.91246(18) 0.58087(18) 0.65605(19)
H33 H 0.9176 0.5712 0.6482
C34 C 0.9166(2) 0.60018(18) 0.65208(19)
H34A H 0.9243 0.6034 0.6415
C35 C 0.90948(17) 0.61418(16) 0.66367(18)
C36 C 0.89821(17) 0.60932(18) 0.67890(17)
H36A H 0.8934 0.6190 0.6869
C37 C 0.89380(18) 0.59000(16) 0.68270(17)
H37A H 0.8859 0.5868 0.6931
Zn2 Zn 0.87422(2) 0.525396(18) 0.686884(18)
N1 N 0.89342(14) 0.50630(14) 0.70012(12)
C1 C 0.90833(16) 0.51389(17) 0.70954(14)
H1 H 0.9113 0.5267 0.7066
N2 N 0.91962(12) 0.50514(13) 0.72283(12)
C2 C 0.91400(18) 0.48682(16) 0.72555(16)
C3 C 0.89825(18) 0.47682(17) 0.71633(16)
C4 C 0.88844(19) 0.48683(19) 0.70317(19)
N3 N 0.89588(15) 0.45834(12) 0.72379(13)
C5 C 0.91084(17) 0.45831(18) 0.73642(17)
H5 H 0.9136 0.4473 0.7437
N5 N 0.87346(15) 0.47809(12) 0.69332(13)
H10A H 0.8705 0.4662 0.6957
H10B H 0.8671 0.4845 0.6848
C11 C 0.9455(2) 0.5527(2) 0.7209(2)
O11A O 0.95520(17) 0.53896(14) 0.72684(16)
O11B O 0.92792(16) 0.55419(15) 0.72244(17)
C12 C 0.9561(2) 0.56824(18) 0.70977(17)
C13 C 0.94656(19) 0.58283(18) 0.7012(2)
H13 H 0.9331 0.5832 0.7018
C14 C 0.95649(18) 0.59767(19) 0.6912(2)
H14 H 0.9495 0.6078 0.6856
C15 C 0.97581(19) 0.59733(18) 0.6895(2)
C16 C 0.9848(2) 0.5819(2) 0.6971(3)
H16 H 0.9980 0.5803 0.6947
C17 C 0.9754(2) 0.5679(2) 0.7084(3)
H17 H 0.9825 0.5584 0.7149
C21 C 1.0178(2) 0.6570(2) 0.6488(2)
O21A O 1.00832(11) 0.66768(10) 0.63807(12)
O21B O 1.03525(14) 0.65833(18) 0.6496(2)
C22 C 1.00668(19) 0.64157(17) 0.65962(17)
C23 C 0.98774(18) 0.64123(18) 0.6599(2)
H23 H 0.9808 0.6508 0.6534
C24 C 0.97766(19) 0.6265(2) 0.6698(2)
H24 H 0.9642 0.6268 0.6700
C25 C 0.9866(2) 0.61214(18) 0.6790(2)
C26 C 1.0060(2) 0.6131(2) 0.6796(3)
H26 H 1.0130 0.6044 0.6871
C27 C 1.0156(2) 0.6272(2) 0.6691(3)
H27 H 1.0291 0.6267 0.6685
Zn1 Zn 1.01054(2) 0.77014(2) 0.68967(2)
Zn2 Zn 1.025396(18) 0.686884(18) 0.62578(2)
Zn2 Zn 0.974604(18) 0.813116(18) 0.62578(2)
N3 N 0.95834(12) 0.72379(13) 0.60412(15)
N3 N 0.85412(15) 0.52621(13) 0.70834(12)
N4 N 1.01165(13) 0.72442(14) 0.67179(14)
O21A O 0.86193(12) 0.50832(11) 0.66768(10)
O21A O 0.91768(10) 0.74168(11) 0.61193(12)
Zn2 Zn 0.563116(18) 0.275396(18) 0.12422(2)
N1 N 0.54988(12) 0.25630(14) 0.14342(14)
C1 C 0.54046(14) 0.26389(17) 0.15833(16)
H1 H 0.5434 0.2767 0.1613
N2 N 0.52717(12) 0.25514(13) 0.16962(12)
C2 C 0.52445(16) 0.23682(16) 0.16400(18)
C3 C 0.53367(16) 0.22682(17) 0.14825(18)
C4 C 0.54683(19) 0.23683(19) 0.13844(19)
N3 N 0.52621(13) 0.20834(12) 0.14588(15)
C5 C 0.51358(17) 0.20831(18) 0.16084(17)
H5 H 0.5063 0.1973 0.1636
N5 N 0.55668(13) 0.22809(12) 0.12346(15)
H10A H 0.5543 0.2162 0.1205
H10B H 0.5652 0.2345 0.1171
C11 C 0.5291(2) 0.3027(2) 0.1955(2)
O11A O 0.52316(16) 0.28896(14) 0.20520(17)
O11B O 0.52756(17) 0.30419(15) 0.17792(16)
C12 C 0.54023(17) 0.31824(18) 0.2061(2)
C13 C 0.5488(2) 0.33283(18) 0.19656(19)
H13 H 0.5482 0.3332 0.1831
C14 C 0.5588(2) 0.34767(19) 0.20649(18)
H14 H 0.5644 0.3578 0.1995
C15 C 0.5605(2) 0.34733(18) 0.22581(19)
C16 C 0.5529(3) 0.3319(2) 0.2348(2)
H16 H 0.5553 0.3303 0.2480
C17 C 0.5416(3) 0.3179(2) 0.2254(2)
H17 H 0.5351 0.3084 0.2325
C21 C 0.6012(2) 0.4070(2) 0.2678(2)
O21A O 0.61193(12) 0.41768(10) 0.25832(11)
O21B O 0.6004(2) 0.40833(18) 0.28525(14)
C22 C 0.59038(17) 0.39157(17) 0.25668(19)
C23 C 0.5901(2) 0.39123(18) 0.23774(18)
H23 H 0.5966 0.4008 0.2308
C24 C 0.5802(2) 0.3765(2) 0.22766(19)
H24 H 0.5800 0.3768 0.2142
C25 C 0.5710(2) 0.36214(18) 0.2366(2)
C26 C 0.5704(3) 0.3631(2) 0.2560(2)
H26 H 0.5629 0.3544 0.2630
C27 C 0.5809(3) 0.3772(2) 0.2656(2)
H27 H 0.5815 0.3767 0.2791
C31 C 0.5748(2) 0.3048(2) 0.1457(2)
O31A O 0.56168(11) 0.30126(11) 0.13372(14)
O31B O 0.58550(14) 0.29228(12) 0.15138(18)
C32 C 0.57886(16) 0.32589(17) 0.15106(15)
C33 C 0.59395(19) 0.33087(18) 0.16246(18)
H33 H 0.6018 0.3212 0.1676
C34 C 0.59792(19) 0.35018(18) 0.1666(2)
H34A H 0.6085 0.3534 0.1743
C35 C 0.58633(18) 0.36418(16) 0.15948(17)
C36 C 0.57110(17) 0.35932(18) 0.14821(17)
H36A H 0.5631 0.3690 0.1434
C37 C 0.56730(17) 0.34000(16) 0.14380(18)
H37A H 0.5569 0.3368 0.1359
C31 C 0.6043(2) 0.4452(2) 0.1752(2)
O31A O 0.61628(14) 0.44874(11) 0.18832(11)
O31B O 0.59862(18) 0.45772(12) 0.16450(14)
C32 C 0.59894(15) 0.42411(17) 0.17114(16)
C33 C 0.58754(18) 0.41913(18) 0.15605(19)
H33 H 0.5824 0.4288 0.1482
C34 C 0.5834(2) 0.39982(18) 0.15208(19)
H34A H 0.5757 0.3966 0.1415
C35 C 0.59052(17) 0.38582(16) 0.16367(18)
C36 C 0.60179(17) 0.39068(18) 0.17890(17)
H36A H 0.6066 0.3810 0.1869
C37 C 0.60620(18) 0.41000(16) 0.18270(17)
H37A H 0.6141 0.4132 0.1931
Zn2 Zn 0.62578(2) 0.474604(18) 0.186884(18)
N1 N 0.60658(14) 0.49370(14) 0.20012(12)
C1 C 0.59167(16) 0.48611(17) 0.20954(14)
H1 H 0.5887 0.4733 0.2066
N2 N 0.58038(12) 0.49486(13) 0.22283(12)
C2 C 0.58600(18) 0.51318(16) 0.22555(16)
C3 C 0.60175(18) 0.52318(17) 0.21633(16)
C4 C 0.61156(19) 0.51317(19) 0.20317(19)
N3 N 0.60412(15) 0.54166(12) 0.22379(13)
C5 C 0.58916(17) 0.54169(18) 0.23642(17)
H5 H 0.5864 0.5527 0.2437
N5 N 0.62654(15) 0.52191(12) 0.19332(13)
H10A H 0.6295 0.5338 0.1957
H10B H 0.6329 0.5155 0.1848
C11 C 0.5545(2) 0.4473(2) 0.2209(2)
O11A O 0.54480(17) 0.46104(14) 0.22684(16)
O11B O 0.57208(16) 0.44581(15) 0.22244(17)
C12 C 0.5439(2) 0.43176(18) 0.20977(17)
C13 C 0.55344(19) 0.41717(18) 0.2012(2)
H13 H 0.5669 0.4168 0.2018
C14 C 0.54351(18) 0.40233(19) 0.1912(2)
H14 H 0.5505 0.3922 0.1856
C15 C 0.52419(19) 0.40267(18) 0.1895(2)
C16 C 0.5152(2) 0.4181(2) 0.1971(3)
H16 H 0.5020 0.4197 0.1947
C17 C 0.5246(2) 0.4321(2) 0.2084(3)
H17 H 0.5175 0.4416 0.2149
C21 C 0.4822(2) 0.3430(2) 0.1488(2)
O21A O 0.49168(11) 0.33232(10) 0.13807(12)
O21B O 0.46475(14) 0.34167(18) 0.1496(2)
C22 C 0.49332(19) 0.35843(17) 0.15962(17)
C23 C 0.51226(18) 0.35877(18) 0.1599(2)
H23 H 0.5192 0.3492 0.1534
C24 C 0.52234(19) 0.3735(2) 0.1698(2)
H24 H 0.5358 0.3732 0.1700
C25 C 0.5134(2) 0.38786(18) 0.1790(2)
C26 C 0.4940(2) 0.3869(2) 0.1796(3)
H26 H 0.4870 0.3956 0.1871
C27 C 0.4844(2) 0.3728(2) 0.1691(3)
H27 H 0.4709 0.3733 0.1685
N3 N 0.54166(12) 0.27621(13) 0.10412(15)
N3 N 0.64588(15) 0.47379(13) 0.20834(12)
O21A O 0.63807(12) 0.49168(11) 0.16768(10)
O21A O 0.58232(10) 0.25832(11) 0.11193(12)
Zn1 Zn 0.01054(2) 0.22986(2) 0.81033(2)
Zn2 Zn 0.063116(18) 0.224604(18) 0.87578(2)
N1 N 0.04988(12) 0.24370(14) 0.85658(14)
C1 C 0.04046(14) 0.23611(17) 0.84167(16)
H1 H 0.0434 0.2233 0.8387
N2 N 0.02717(12) 0.24486(13) 0.83038(12)
C2 C 0.02445(16) 0.26318(16) 0.83600(18)
C3 C 0.03367(16) 0.27318(17) 0.85175(18)
C4 C 0.04683(19) 0.26317(19) 0.86156(19)
N3 N 0.02621(13) 0.29166(12) 0.85412(15)
C5 C 0.01358(17) 0.29169(18) 0.83916(17)
H5 H 0.0063 0.3027 0.8364
N4 N 0.01165(13) 0.27558(14) 0.82821(14)
N5 N 0.05668(13) 0.27191(12) 0.87654(15)
H10A H 0.0543 0.2838 0.8795
H10B H 0.0652 0.2655 0.8829
O1 O 0.0000 0.2500 0.79382(13)
C11 C 0.0291(2) 0.1973(2) 0.8045(2)
O11A O 0.02316(16) 0.21104(14) 0.79480(17)
O11B O 0.02756(17) 0.19581(15) 0.82208(16)
C12 C 0.04023(17) 0.18176(18) 0.7939(2)
C13 C 0.0488(2) 0.16717(18) 0.80344(19)
H13 H 0.0482 0.1668 0.8169
C14 C 0.0588(2) 0.15233(19) 0.79351(18)
H14 H 0.0644 0.1422 0.8005
C15 C 0.0605(2) 0.15267(18) 0.77419(19)
C16 C 0.0529(3) 0.1681(2) 0.7652(2)
H16 H 0.0553 0.1697 0.7520
C17 C 0.0416(3) 0.1821(2) 0.7746(2)
H17 H 0.0351 0.1916 0.7675
C21 C 0.1012(2) 0.0930(2) 0.7322(2)
O21A O 0.11193(12) 0.08232(10) 0.74168(11)
O21B O 0.1004(2) 0.09167(18) 0.71475(14)
C22 C 0.09038(17) 0.10843(17) 0.74332(19)
C23 C 0.0901(2) 0.10877(18) 0.76226(18)
H23 H 0.0966 0.0992 0.7692
C24 C 0.0802(2) 0.1235(2) 0.77234(19)
H24 H 0.0800 0.1232 0.7858
C25 C 0.0710(2) 0.13786(18) 0.7634(2)
C26 C 0.0704(3) 0.1369(2) 0.7440(2)
H26 H 0.0629 0.1456 0.7370
C27 C 0.0809(3) 0.1228(2) 0.7344(2)
H27 H 0.0815 0.1233 0.7209
C31 C 0.0748(2) 0.1952(2) 0.8543(2)
O31A O 0.06168(11) 0.19874(11) 0.86628(14)
O31B O 0.08550(14) 0.20772(12) 0.84862(18)
C32 C 0.07886(16) 0.17411(17) 0.84894(15)
C33 C 0.09395(19) 0.16913(18) 0.83754(18)
H33 H 0.1018 0.1788 0.8324
C34 C 0.09792(19) 0.14982(18) 0.8334(2)
H34A H 0.1085 0.1466 0.8257
C35 C 0.08633(18) 0.13582(16) 0.84052(17)
C36 C 0.07110(17) 0.14068(18) 0.85179(17)
H36A H 0.0631 0.1310 0.8566
C37 C 0.06730(17) 0.16000(16) 0.85620(18)
H37A H 0.0569 0.1632 0.8641
C31 C 0.1043(2) 0.0548(2) 0.8248(2)
O31A O 0.11628(14) 0.05126(11) 0.81168(11)
O31B O 0.09862(18) 0.04228(12) 0.83550(14)
C32 C 0.09894(15) 0.07589(17) 0.82886(16)
C33 C 0.08754(18) 0.08087(18) 0.84395(19)
H33 H 0.0824 0.0712 0.8518
C34 C 0.0834(2) 0.10018(18) 0.84792(19)
H34A H 0.0757 0.1034 0.8585
C35 C 0.09052(17) 0.11418(16) 0.83633(18)
C36 C 0.10179(17) 0.10932(18) 0.82110(17)
H36A H 0.1066 0.1190 0.8131
C37 C 0.10620(18) 0.09000(16) 0.81730(17)
H37A H 0.1141 0.0868 0.8069
Zn1 Zn 0.06033(2) 0.02014(2) 0.76054(2)
Zn2 Zn 0.12578(2) 0.025396(18) 0.813116(18)
N1 N 0.10658(14) 0.00630(14) 0.79988(12)
C1 C 0.09167(16) 0.01389(17) 0.79046(14)
H1 H 0.0887 0.0267 0.7934
N2 N 0.08038(12) 0.00514(13) 0.77717(12)
C2 C 0.08600(18) -0.01318(16) 0.77445(16)
C3 C 0.10175(18) -0.02318(17) 0.78367(16)
C4 C 0.11156(19) -0.01317(19) 0.79683(19)
N3 N 0.10412(15) -0.04166(12) 0.77621(13)
C5 C 0.08916(17) -0.04169(18) 0.76358(17)
H5 H 0.0864 -0.0527 0.7563
N4 N 0.07821(14) -0.02558(14) 0.76165(13)
N5 N 0.12654(15) -0.02191(12) 0.80668(13)
H10A H 0.1295 -0.0338 0.8043
H10B H 0.1329 -0.0155 0.8152
C11 C 0.0545(2) 0.0527(2) 0.7791(2)
O11A O 0.04480(17) 0.03896(14) 0.77316(16)
O11B O 0.07208(16) 0.05419(15) 0.77756(17)
C12 C 0.0439(2) 0.06824(18) 0.79023(17)
C13 C 0.05344(19) 0.08283(18) 0.7988(2)
H13 H 0.0669 0.0832 0.7982
C14 C 0.04351(18) 0.09767(19) 0.8088(2)
H14 H 0.0505 0.1078 0.8144
C15 C 0.02419(19) 0.09733(18) 0.8105(2)
C16 C 0.0152(2) 0.0819(2) 0.8029(3)
H16 H 0.0020 0.0803 0.8053
C17 C 0.0246(2) 0.0679(2) 0.7916(3)
H17 H 0.0175 0.0584 0.7851
C21 C -0.0178(2) 0.1570(2) 0.8512(2)
O21A O -0.00832(11) 0.16768(10) 0.86193(12)
O21B O -0.03525(14) 0.15833(18) 0.8504(2)
C22 C -0.00668(19) 0.14157(17) 0.84038(17)
C23 C 0.01226(18) 0.14123(18) 0.8401(2)
H23 H 0.0192 0.1508 0.8466
C24 C 0.02234(19) 0.1265(2) 0.8302(2)
H24 H 0.0358 0.1268 0.8300
C25 C 0.0134(2) 0.11214(18) 0.8210(2)
C26 C -0.0060(2) 0.1131(2) 0.8204(3)
H26 H -0.0130 0.1044 0.8129
C27 C -0.0156(2) 0.1272(2) 0.8309(3)
H27 H -0.0291 0.1267 0.8315
Zn1 Zn -0.01054(2) 0.27014(2) 0.81033(2)
Zn1 Zn 0.06033(2) -0.02014(2) 0.73946(2)
Zn2 Zn 0.12422(2) -0.063116(18) 0.775396(18)
Zn2 Zn -0.025396(18) 0.186884(18) 0.87422(2)
Zn2 Zn 0.12422(2) 0.063116(18) 0.724604(18)
Zn2 Zn 0.025396(18) 0.313116(18) 0.87422(2)
N3 N 0.04166(12) 0.22379(13) 0.89588(15)
N3 N 0.14588(15) 0.02621(13) 0.79166(12)
N4 N -0.01165(13) 0.22442(14) 0.82821(14)
N4 N 0.07821(14) 0.02558(14) 0.73835(13)
O1 O 0.04382(13) 0.0000 0.7500
O21A O 0.13807(12) 0.00832(11) 0.83232(10)
O21A O 0.08232(10) 0.24168(11) 0.88807(12)
Zn2 Zn 0.436884(18) 0.775396(18) 0.37578(2)
N1 N 0.45012(12) 0.75630(14) 0.35658(14)
C1 C 0.45954(14) 0.76389(17) 0.34167(16)
H1 H 0.4566 0.7767 0.3387
N2 N 0.47283(12) 0.75514(13) 0.33038(12)
C2 C 0.47555(16) 0.73682(16) 0.33600(18)
C3 C 0.46633(16) 0.72682(17) 0.35175(18)
C4 C 0.45317(19) 0.73683(19) 0.36156(19)
N3 N 0.47379(13) 0.70834(12) 0.35412(15)
C5 C 0.48642(17) 0.70831(18) 0.33916(17)
H5 H 0.4937 0.6973 0.3364
N5 N 0.44332(13) 0.72809(12) 0.37654(15)
H10A H 0.4457 0.7162 0.3795
H10B H 0.4348 0.7345 0.3829
C11 C 0.4709(2) 0.8027(2) 0.3045(2)
O11A O 0.47684(16) 0.78896(14) 0.29480(17)
O11B O 0.47244(17) 0.80419(15) 0.32208(16)
C12 C 0.45977(17) 0.81824(18) 0.2939(2)
C13 C 0.4512(2) 0.83283(18) 0.30344(19)
H13 H 0.4518 0.8332 0.3169
C14 C 0.4412(2) 0.84767(19) 0.29351(18)
H14 H 0.4356 0.8578 0.3005
C15 C 0.4395(2) 0.84733(18) 0.27419(19)
C16 C 0.4471(3) 0.8319(2) 0.2652(2)
H16 H 0.4447 0.8303 0.2520
C17 C 0.4584(3) 0.8179(2) 0.2746(2)
H17 H 0.4649 0.8084 0.2675
C21 C 0.3988(2) 0.9070(2) 0.2322(2)
O21A O 0.38807(12) 0.91768(10) 0.24168(11)
O21B O 0.3996(2) 0.90833(18) 0.21475(14)
C22 C 0.40962(17) 0.89157(17) 0.24332(19)
C23 C 0.4099(2) 0.89123(18) 0.26226(18)
H23 H 0.4034 0.9008 0.2692
C24 C 0.4198(2) 0.8765(2) 0.27234(19)
H24 H 0.4200 0.8768 0.2858
C25 C 0.4290(2) 0.86214(18) 0.2634(2)
C26 C 0.4296(3) 0.8631(2) 0.2440(2)
H26 H 0.4371 0.8544 0.2370
C27 C 0.4191(3) 0.8772(2) 0.2344(2)
H27 H 0.4185 0.8767 0.2209
C31 C 0.4252(2) 0.8048(2) 0.3543(2)
O31A O 0.43832(11) 0.80126(11) 0.36628(14)
O31B O 0.41450(14) 0.79228(12) 0.34862(18)
C32 C 0.42114(16) 0.82589(17) 0.34894(15)
C33 C 0.40605(19) 0.83087(18) 0.33754(18)
H33 H 0.3982 0.8212 0.3324
C34 C 0.40208(19) 0.85018(18) 0.3334(2)
H34A H 0.3915 0.8534 0.3257
C35 C 0.41367(18) 0.86418(16) 0.34052(17)
C36 C 0.42890(17) 0.85932(18) 0.35179(17)
H36A H 0.4369 0.8690 0.3566
C37 C 0.43270(17) 0.84000(16) 0.35620(18)
H37A H 0.4431 0.8368 0.3641
C31 C 0.3957(2) 0.9452(2) 0.3248(2)
O31A O 0.38372(14) 0.94874(11) 0.31168(11)
O31B O 0.40138(18) 0.95772(12) 0.33550(14)
C32 C 0.40106(15) 0.92411(17) 0.32886(16)
C33 C 0.41246(18) 0.91913(18) 0.34395(19)
H33 H 0.4176 0.9288 0.3518
C34 C 0.4166(2) 0.89982(18) 0.34792(19)
H34A H 0.4243 0.8966 0.3585
C35 C 0.40948(17) 0.88582(16) 0.33633(18)
C36 C 0.39821(17) 0.89068(18) 0.32110(17)
H36A H 0.3934 0.8810 0.3131
C37 C 0.39380(18) 0.91000(16) 0.31730(17)
H37A H 0.3859 0.9132 0.3069
Zn1 Zn 0.43967(2) 0.97986(2) 0.26054(2)
Zn2 Zn 0.37422(2) 0.974604(18) 0.313116(18)
N1 N 0.39342(14) 0.99370(14) 0.29988(12)
C1 C 0.40833(16) 0.98611(17) 0.29046(14)
H1 H 0.4113 0.9733 0.2934
N2 N 0.41962(12) 0.99486(13) 0.27717(12)
C2 C 0.41400(18) 1.01318(16) 0.27445(16)
C3 C 0.39825(18) 1.02318(17) 0.28367(16)
C4 C 0.38844(19) 1.01317(19) 0.29683(19)
N3 N 0.39588(15) 1.04166(12) 0.27621(13)
C5 C 0.41084(17) 1.04169(18) 0.26358(17)
H5 H 0.4136 1.0527 0.2563
N4 N 0.42179(14) 1.02558(14) 0.26165(13)
N5 N 0.37346(15) 1.02191(12) 0.30668(13)
H10A H 0.3705 1.0338 0.3043
H10B H 0.3671 1.0155 0.3152
C11 C 0.4455(2) 0.9473(2) 0.2791(2)
O11A O 0.45520(17) 0.96104(14) 0.27316(16)
O11B O 0.42792(16) 0.94581(15) 0.27756(17)
C12 C 0.4561(2) 0.93176(18) 0.29023(17)
C13 C 0.44656(19) 0.91717(18) 0.2988(2)
H13 H 0.4331 0.9168 0.2982
C14 C 0.45649(18) 0.90233(19) 0.3088(2)
H14 H 0.4495 0.8922 0.3144
C15 C 0.47581(19) 0.90267(18) 0.3105(2)
C16 C 0.4848(2) 0.9181(2) 0.3029(3)
H16 H 0.4980 0.9197 0.3053
C17 C 0.4754(2) 0.9321(2) 0.2916(3)
H17 H 0.4825 0.9416 0.2851
C21 C 0.5178(2) 0.8430(2) 0.3512(2)
O21A O 0.50832(11) 0.83232(10) 0.36193(12)
O21B O 0.53525(14) 0.84167(18) 0.3504(2)
C22 C 0.50668(19) 0.85843(17) 0.34038(17)
C23 C 0.48774(18) 0.85877(18) 0.3401(2)
H23 H 0.4808 0.8492 0.3466
C24 C 0.47766(19) 0.8735(2) 0.3302(2)
H24 H 0.4642 0.8732 0.3300
C25 C 0.4866(2) 0.88786(18) 0.3210(2)
C26 C 0.5060(2) 0.8869(2) 0.3204(3)
H26 H 0.5130 0.8956 0.3129
C27 C 0.5156(2) 0.8728(2) 0.3309(3)
H27 H 0.5291 0.8733 0.3315
Zn1 Zn 0.43967(2) 1.02014(2) 0.23946(2)
Zn2 Zn 0.37578(2) 1.063116(18) 0.275396(18)
Zn2 Zn 0.37578(2) 0.936884(18) 0.224604(18)
N3 N 0.45834(12) 0.77621(13) 0.39588(15)
N3 N 0.35412(15) 0.97379(13) 0.29166(12)
N4 N 0.42179(14) 0.97442(14) 0.23835(13)
O1 O 0.45618(13) 1.0000 0.2500
O21A O 0.36193(12) 0.99168(11) 0.33232(10)
O21A O 0.41768(10) 0.75832(11) 0.38807(12)
Zn1 Zn 0.68967(2) 0.98946(2) 0.72986(2)
Zn2 Zn 0.62422(2) 0.936884(18) 0.724604(18)
N1 N 0.64342(14) 0.95012(12) 0.74370(14)
C1 C 0.65833(16) 0.95954(14) 0.73611(17)
H1 H 0.6613 0.9566 0.7233
N2 N 0.66962(12) 0.97283(12) 0.74486(13)
C2 C 0.66400(18) 0.97555(16) 0.76318(16)
C3 C 0.64825(18) 0.96633(16) 0.77318(17)
C4 C 0.63844(19) 0.95317(19) 0.76317(19)
N3 N 0.64588(15) 0.97379(13) 0.79166(12)
C5 C 0.66084(17) 0.98642(17) 0.79169(18)
H5 H 0.6636 0.9937 0.8027
N4 N 0.67179(14) 0.98835(13) 0.77558(14)
N5 N 0.62346(15) 0.94332(13) 0.77191(12)
H10A H 0.6205 0.9457 0.7838
H10B H 0.6171 0.9348 0.7655
O1 O 0.70618(13) 1.0000 0.7500
C11 C 0.6955(2) 0.9709(2) 0.6973(2)
O11A O 0.70520(17) 0.97684(16) 0.71104(14)
O11B O 0.67792(16) 0.97244(17) 0.69581(15)
C12 C 0.7061(2) 0.95977(17) 0.68176(18)
C13 C 0.69656(19) 0.9512(2) 0.66717(18)
H13 H 0.6831 0.9518 0.6668
C14 C 0.70649(18) 0.9412(2) 0.65233(19)
H14 H 0.6995 0.9356 0.6422
C15 C 0.72581(19) 0.9395(2) 0.65267(18)
C16 C 0.7348(2) 0.9471(3) 0.6681(2)
H16 H 0.7480 0.9447 0.6697
C17 C 0.7254(2) 0.9584(3) 0.6821(2)
H17 H 0.7325 0.9649 0.6916
C21 C 0.7678(2) 0.8988(2) 0.5930(2)
O21A O 0.75832(11) 0.88807(12) 0.58232(10)
O21B O 0.78525(14) 0.8996(2) 0.59167(18)
C22 C 0.75668(19) 0.90962(17) 0.60843(17)
C23 C 0.73774(18) 0.9099(2) 0.60877(18)
H23 H 0.7308 0.9034 0.5992
C24 C 0.72766(19) 0.9198(2) 0.6235(2)
H24 H 0.7142 0.9200 0.6232
C25 C 0.7366(2) 0.9290(2) 0.63786(18)
C26 C 0.7560(2) 0.9296(3) 0.6369(2)
H26 H 0.7630 0.9371 0.6456
C27 C 0.7656(2) 0.9191(3) 0.6228(2)
H27 H 0.7791 0.9185 0.6233
C31 C 0.6457(2) 0.9252(2) 0.6952(2)
O31A O 0.63372(14) 0.93832(11) 0.69874(11)
O31B O 0.65138(18) 0.91450(14) 0.70772(12)
C32 C 0.65106(15) 0.92114(16) 0.67411(17)
C33 C 0.66246(18) 0.90605(19) 0.66913(18)
H33 H 0.6676 0.8982 0.6788
C34 C 0.6666(2) 0.90208(19) 0.64982(18)
H34A H 0.6743 0.8915 0.6466
C35 C 0.65948(17) 0.91367(18) 0.63582(16)
C36 C 0.64821(17) 0.92890(17) 0.64068(18)
H36A H 0.6434 0.9369 0.6310
C37 C 0.64380(18) 0.93270(17) 0.66000(16)
H37A H 0.6359 0.9431 0.6632
C31 C 0.6752(2) 0.8957(2) 0.5548(2)
O31A O 0.68832(11) 0.88372(14) 0.55126(11)
O31B O 0.66450(14) 0.90138(18) 0.54228(12)
C32 C 0.67114(16) 0.90106(15) 0.57589(17)
C33 C 0.65605(19) 0.91246(18) 0.58087(18)
H33 H 0.6482 0.9176 0.5712
C34 C 0.65208(19) 0.9166(2) 0.60018(18)
H34A H 0.6415 0.9243 0.6034
C35 C 0.66367(18) 0.90948(17) 0.61418(16)
C36 C 0.67890(17) 0.89821(17) 0.60932(18)
H36A H 0.6869 0.8934 0.6190
C37 C 0.68270(17) 0.89380(18) 0.59000(16)
H37A H 0.6931 0.8859 0.5868
Zn2 Zn 0.686884(18) 0.87422(2) 0.525396(18)
N1 N 0.70012(12) 0.89342(14) 0.50630(14)
C1 C 0.70954(14) 0.90833(16) 0.51389(17)
H1 H 0.7066 0.9113 0.5267
N2 N 0.72283(12) 0.91962(12) 0.50514(13)
C2 C 0.72555(16) 0.91400(18) 0.48682(16)
C3 C 0.71633(16) 0.89825(18) 0.47682(17)
C4 C 0.70317(19) 0.88844(19) 0.48683(19)
N3 N 0.72379(13) 0.89588(15) 0.45834(12)
C5 C 0.73642(17) 0.91084(17) 0.45831(18)
H5 H 0.7437 0.9136 0.4473
N5 N 0.69332(13) 0.87346(15) 0.47809(12)
H10A H 0.6957 0.8705 0.4662
H10B H 0.6848 0.8671 0.4845
C11 C 0.7209(2) 0.9455(2) 0.5527(2)
O11A O 0.72684(16) 0.95520(17) 0.53896(14)
O11B O 0.72244(17) 0.92792(16) 0.55419(15)
C12 C 0.70977(17) 0.9561(2) 0.56824(18)
C13 C 0.7012(2) 0.94656(19) 0.58283(18)
H13 H 0.7018 0.9331 0.5832
C14 C 0.6912(2) 0.95649(18) 0.59767(19)
H14 H 0.6856 0.9495 0.6078
C15 C 0.6895(2) 0.97581(19) 0.59733(18)
C16 C 0.6971(3) 0.9848(2) 0.5819(2)
H16 H 0.6947 0.9980 0.5803
C17 C 0.7084(3) 0.9754(2) 0.5679(2)
H17 H 0.7149 0.9825 0.5584
C21 C 0.6488(2) 1.0178(2) 0.6570(2)
O21A O 0.63807(12) 1.00832(11) 0.66768(10)
O21B O 0.6496(2) 1.03525(14) 0.65833(18)
C22 C 0.65962(17) 1.00668(19) 0.64157(17)
C23 C 0.6599(2) 0.98774(18) 0.64123(18)
H23 H 0.6534 0.9808 0.6508
C24 C 0.6698(2) 0.97766(19) 0.6265(2)
H24 H 0.6700 0.9642 0.6268
C25 C 0.6790(2) 0.9866(2) 0.61214(18)
C26 C 0.6796(3) 1.0060(2) 0.6131(2)
H26 H 0.6871 1.0130 0.6044
C27 C 0.6691(3) 1.0156(2) 0.6272(2)
H27 H 0.6685 1.0291 0.6267
Zn1 Zn 0.68967(2) 1.01054(2) 0.77014(2)
Zn2 Zn 0.62578(2) 1.025396(18) 0.686884(18)
Zn2 Zn 0.62578(2) 0.974604(18) 0.813116(18)
N3 N 0.60412(15) 0.95834(12) 0.72379(13)
N3 N 0.70834(12) 0.85412(15) 0.52621(13)
N4 N 0.67179(14) 1.01165(13) 0.72442(14)
O21A O 0.66768(10) 0.86193(12) 0.50832(11)
O21A O 0.61193(12) 0.91768(10) 0.74168(11)
Zn2 Zn 0.12422(2) 0.563116(18) 0.275396(18)
N1 N 0.14342(14) 0.54988(12) 0.25630(14)
C1 C 0.15833(16) 0.54046(14) 0.26389(17)
H1 H 0.1613 0.5434 0.2767
N2 N 0.16962(12) 0.52717(12) 0.25514(13)
C2 C 0.16400(18) 0.52445(16) 0.23682(16)
C3 C 0.14825(18) 0.53367(16) 0.22682(17)
C4 C 0.13844(19) 0.54683(19) 0.23683(19)
N3 N 0.14588(15) 0.52621(13) 0.20834(12)
C5 C 0.16084(17) 0.51358(17) 0.20831(18)
H5 H 0.1636 0.5063 0.1973
N5 N 0.12346(15) 0.55668(13) 0.22809(12)
H10A H 0.1205 0.5543 0.2162
H10B H 0.1171 0.5652 0.2345
C11 C 0.1955(2) 0.5291(2) 0.3027(2)
O11A O 0.20520(17) 0.52316(16) 0.28896(14)
O11B O 0.17792(16) 0.52756(17) 0.30419(15)
C12 C 0.2061(2) 0.54023(17) 0.31824(18)
C13 C 0.19656(19) 0.5488(2) 0.33283(18)
H13 H 0.1831 0.5482 0.3332
C14 C 0.20649(18) 0.5588(2) 0.34767(19)
H14 H 0.1995 0.5644 0.3578
C15 C 0.22581(19) 0.5605(2) 0.34733(18)
C16 C 0.2348(2) 0.5529(3) 0.3319(2)
H16 H 0.2480 0.5553 0.3303
C17 C 0.2254(2) 0.5416(3) 0.3179(2)
H17 H 0.2325 0.5351 0.3084
C21 C 0.2678(2) 0.6012(2) 0.4070(2)
O21A O 0.25832(11) 0.61193(12) 0.41768(10)
O21B O 0.28525(14) 0.6004(2) 0.40833(18)
C22 C 0.25668(19) 0.59038(17) 0.39157(17)
C23 C 0.23774(18) 0.5901(2) 0.39123(18)
H23 H 0.2308 0.5966 0.4008
C24 C 0.22766(19) 0.5802(2) 0.3765(2)
H24 H 0.2142 0.5800 0.3768
C25 C 0.2366(2) 0.5710(2) 0.36214(18)
C26 C 0.2560(2) 0.5704(3) 0.3631(2)
H26 H 0.2630 0.5629 0.3544
C27 C 0.2656(2) 0.5809(3) 0.3772(2)
H27 H 0.2791 0.5815 0.3767
C31 C 0.1457(2) 0.5748(2) 0.3048(2)
O31A O 0.13372(14) 0.56168(11) 0.30126(11)
O31B O 0.15138(18) 0.58550(14) 0.29228(12)
C32 C 0.15106(15) 0.57886(16) 0.32589(17)
C33 C 0.16246(18) 0.59395(19) 0.33087(18)
H33 H 0.1676 0.6018 0.3212
C34 C 0.1666(2) 0.59792(19) 0.35018(18)
H34A H 0.1743 0.6085 0.3534
C35 C 0.15948(17) 0.58633(18) 0.36418(16)
C36 C 0.14821(17) 0.57110(17) 0.35932(18)
H36A H 0.1434 0.5631 0.3690
C37 C 0.14380(18) 0.56730(17) 0.34000(16)
H37A H 0.1359 0.5569 0.3368
C31 C 0.1752(2) 0.6043(2) 0.4452(2)
O31A O 0.18832(11) 0.61628(14) 0.44874(11)
O31B O 0.16450(14) 0.59862(18) 0.45772(12)
C32 C 0.17114(16) 0.59894(15) 0.42411(17)
C33 C 0.15605(19) 0.58754(18) 0.41913(18)
H33 H 0.1482 0.5824 0.4288
C34 C 0.15208(19) 0.5834(2) 0.39982(18)
H34A H 0.1415 0.5757 0.3966
C35 C 0.16367(18) 0.59052(17) 0.38582(16)
C36 C 0.17890(17) 0.60179(17) 0.39068(18)
H36A H 0.1869 0.6066 0.3810
C37 C 0.18270(17) 0.60620(18) 0.41000(16)
H37A H 0.1931 0.6141 0.4132
Zn2 Zn 0.186884(18) 0.62578(2) 0.474604(18)
N1 N 0.20012(12) 0.60658(14) 0.49370(14)
C1 C 0.20954(14) 0.59167(16) 0.48611(17)
H1 H 0.2066 0.5887 0.4733
N2 N 0.22283(12) 0.58038(12) 0.49486(13)
C2 C 0.22555(16) 0.58600(18) 0.51318(16)
C3 C 0.21633(16) 0.60175(18) 0.52318(17)
C4 C 0.20317(19) 0.61156(19) 0.51317(19)
N3 N 0.22379(13) 0.60412(15) 0.54166(12)
C5 C 0.23642(17) 0.58916(17) 0.54169(18)
H5 H 0.2437 0.5864 0.5527
N5 N 0.19332(13) 0.62654(15) 0.52191(12)
H10A H 0.1957 0.6295 0.5338
H10B H 0.1848 0.6329 0.5155
C11 C 0.2209(2) 0.5545(2) 0.4473(2)
O11A O 0.22684(16) 0.54480(17) 0.46104(14)
O11B O 0.22244(17) 0.57208(16) 0.44581(15)
C12 C 0.20977(17) 0.5439(2) 0.43176(18)
C13 C 0.2012(2) 0.55344(19) 0.41717(18)
H13 H 0.2018 0.5669 0.4168
C14 C 0.1912(2) 0.54351(18) 0.40233(19)
H14 H 0.1856 0.5505 0.3922
C15 C 0.1895(2) 0.52419(19) 0.40267(18)
C16 C 0.1971(3) 0.5152(2) 0.4181(2)
H16 H 0.1947 0.5020 0.4197
C17 C 0.2084(3) 0.5246(2) 0.4321(2)
H17 H 0.2149 0.5175 0.4416
C21 C 0.1488(2) 0.4822(2) 0.3430(2)
O21A O 0.13807(12) 0.49168(11) 0.33232(10)
O21B O 0.1496(2) 0.46475(14) 0.34167(18)
C22 C 0.15962(17) 0.49332(19) 0.35843(17)
C23 C 0.1599(2) 0.51226(18) 0.35877(18)
H23 H 0.1534 0.5192 0.3492
C24 C 0.1698(2) 0.52234(19) 0.3735(2)
H24 H 0.1700 0.5358 0.3732
C25 C 0.1790(2) 0.5134(2) 0.38786(18)
C26 C 0.1796(3) 0.4940(2) 0.3869(2)
H26 H 0.1871 0.4870 0.3956
C27 C 0.1691(3) 0.4844(2) 0.3728(2)
H27 H 0.1685 0.4709 0.3733
N3 N 0.10412(15) 0.54166(12) 0.27621(13)
N3 N 0.20834(12) 0.64588(15) 0.47379(13)
O21A O 0.16768(10) 0.63807(12) 0.49168(11)
O21A O 0.11193(12) 0.58232(10) 0.25832(11)
Zn1 Zn 0.81033(2) 0.01054(2) 0.22986(2)
Zn2 Zn 0.87578(2) 0.063116(18) 0.224604(18)
N1 N 0.85658(14) 0.04988(12) 0.24370(14)
C1 C 0.84167(16) 0.04046(14) 0.23611(17)
H1 H 0.8387 0.0434 0.2233
N2 N 0.83038(12) 0.02717(12) 0.24486(13)
C2 C 0.83600(18) 0.02445(16) 0.26318(16)
C3 C 0.85175(18) 0.03367(16) 0.27318(17)
C4 C 0.86156(19) 0.04683(19) 0.26317(19)
N3 N 0.85412(15) 0.02621(13) 0.29166(12)
C5 C 0.83916(17) 0.01358(17) 0.29169(18)
H5 H 0.8364 0.0063 0.3027
N4 N 0.82821(14) 0.01165(13) 0.27558(14)
N5 N 0.87654(15) 0.05668(13) 0.27191(12)
H10A H 0.8795 0.0543 0.2838
H10B H 0.8829 0.0652 0.2655
O1 O 0.79382(13) 0.0000 0.2500
C11 C 0.8045(2) 0.0291(2) 0.1973(2)
O11A O 0.79480(17) 0.02316(16) 0.21104(14)
O11B O 0.82208(16) 0.02756(17) 0.19581(15)
C12 C 0.7939(2) 0.04023(17) 0.18176(18)
C13 C 0.80344(19) 0.0488(2) 0.16717(18)
H13 H 0.8169 0.0482 0.1668
C14 C 0.79351(18) 0.0588(2) 0.15233(19)
H14 H 0.8005 0.0644 0.1422
C15 C 0.77419(19) 0.0605(2) 0.15267(18)
C16 C 0.7652(2) 0.0529(3) 0.1681(2)
H16 H 0.7520 0.0553 0.1697
C17 C 0.7746(2) 0.0416(3) 0.1821(2)
H17 H 0.7675 0.0351 0.1916
C21 C 0.7322(2) 0.1012(2) 0.0930(2)
O21A O 0.74168(11) 0.11193(12) 0.08232(10)
O21B O 0.71475(14) 0.1004(2) 0.09167(18)
C22 C 0.74332(19) 0.09038(17) 0.10843(17)
C23 C 0.76226(18) 0.0901(2) 0.10877(18)
H23 H 0.7692 0.0966 0.0992
C24 C 0.77234(19) 0.0802(2) 0.1235(2)
H24 H 0.7858 0.0800 0.1232
C25 C 0.7634(2) 0.0710(2) 0.13786(18)
C26 C 0.7440(2) 0.0704(3) 0.1369(2)
H26 H 0.7370 0.0629 0.1456
C27 C 0.7344(2) 0.0809(3) 0.1228(2)
H27 H 0.7209 0.0815 0.1233
C31 C 0.8543(2) 0.0748(2) 0.1952(2)
O31A O 0.86628(14) 0.06168(11) 0.19874(11)
O31B O 0.84862(18) 0.08550(14) 0.20772(12)
C32 C 0.84894(15) 0.07886(16) 0.17411(17)
C33 C 0.83754(18) 0.09395(19) 0.16913(18)
H33 H 0.8324 0.1018 0.1788
C34 C 0.8334(2) 0.09792(19) 0.14982(18)
H34A H 0.8257 0.1085 0.1466
C35 C 0.84052(17) 0.08633(18) 0.13582(16)
C36 C 0.85179(17) 0.07110(17) 0.14068(18)
H36A H 0.8566 0.0631 0.1310
C37 C 0.85620(18) 0.06730(17) 0.16000(16)
H37A H 0.8641 0.0569 0.1632
C31 C 0.8248(2) 0.1043(2) 0.0548(2)
O31A O 0.81168(11) 0.11628(14) 0.05126(11)
O31B O 0.83550(14) 0.09862(18) 0.04228(12)
C32 C 0.82886(16) 0.09894(15) 0.07589(17)
C33 C 0.84395(19) 0.08754(18) 0.08087(18)
H33 H 0.8518 0.0824 0.0712
C34 C 0.84792(19) 0.0834(2) 0.10018(18)
H34A H 0.8585 0.0757 0.1034
C35 C 0.83633(18) 0.09052(17) 0.11418(16)
C36 C 0.82110(17) 0.10179(17) 0.10932(18)
H36A H 0.8131 0.1066 0.1190
C37 C 0.81730(17) 0.10620(18) 0.09000(16)
H37A H 0.8069 0.1141 0.0868
Zn1 Zn 0.76054(2) 0.06033(2) 0.02014(2)
Zn2 Zn 0.813116(18) 0.12578(2) 0.025396(18)
N1 N 0.79988(12) 0.10658(14) 0.00630(14)
C1 C 0.79046(14) 0.09167(16) 0.01389(17)
H1 H 0.7934 0.0887 0.0267
N2 N 0.77717(12) 0.08038(12) 0.00514(13)
C2 C 0.77445(16) 0.08600(18) -0.01318(16)
C3 C 0.78367(16) 0.10175(18) -0.02318(17)
C4 C 0.79683(19) 0.11156(19) -0.01317(19)
N3 N 0.77621(13) 0.10412(15) -0.04166(12)
C5 C 0.76358(17) 0.08916(17) -0.04169(18)
H5 H 0.7563 0.0864 -0.0527
N4 N 0.76165(13) 0.07821(14) -0.02558(14)
N5 N 0.80668(13) 0.12654(15) -0.02191(12)
H10A H 0.8043 0.1295 -0.0338
H10B H 0.8152 0.1329 -0.0155
C11 C 0.7791(2) 0.0545(2) 0.0527(2)
O11A O 0.77316(16) 0.04480(17) 0.03896(14)
O11B O 0.77756(17) 0.07208(16) 0.05419(15)
C12 C 0.79023(17) 0.0439(2) 0.06824(18)
C13 C 0.7988(2) 0.05344(19) 0.08283(18)
H13 H 0.7982 0.0669 0.0832
C14 C 0.8088(2) 0.04351(18) 0.09767(19)
H14 H 0.8144 0.0505 0.1078
C15 C 0.8105(2) 0.02419(19) 0.09733(18)
C16 C 0.8029(3) 0.0152(2) 0.0819(2)
H16 H 0.8053 0.0020 0.0803
C17 C 0.7916(3) 0.0246(2) 0.0679(2)
H17 H 0.7851 0.0175 0.0584
C21 C 0.8512(2) -0.0178(2) 0.1570(2)
O21A O 0.86193(12) -0.00832(11) 0.16768(10)
O21B O 0.8504(2) -0.03525(14) 0.15833(18)
C22 C 0.84038(17) -0.00668(19) 0.14157(17)
C23 C 0.8401(2) 0.01226(18) 0.14123(18)
H23 H 0.8466 0.0192 0.1508
C24 C 0.8302(2) 0.02234(19) 0.1265(2)
H24 H 0.8300 0.0358 0.1268
C25 C 0.8210(2) 0.0134(2) 0.11214(18)
C26 C 0.8204(3) -0.0060(2) 0.1131(2)
H26 H 0.8129 -0.0130 0.1044
C27 C 0.8309(3) -0.0156(2) 0.1272(2)
H27 H 0.8315 -0.0291 0.1267
Zn1 Zn 0.81033(2) -0.01054(2) 0.27014(2)
Zn1 Zn 0.73946(2) 0.06033(2) -0.02014(2)
Zn2 Zn 0.775396(18) 0.12422(2) -0.063116(18)
Zn2 Zn 0.87422(2) -0.025396(18) 0.186884(18)
Zn2 Zn 0.724604(18) 0.12422(2) 0.063116(18)
Zn2 Zn 0.87422(2) 0.025396(18) 0.313116(18)
N3 N 0.89588(15) 0.04166(12) 0.22379(13)
N3 N 0.79166(12) 0.14588(15) 0.02621(13)
N4 N 0.82821(14) -0.01165(13) 0.22442(14)
N4 N 0.73835(13) 0.07821(14) 0.02558(14)
O1 O 0.7500 0.04382(13) 0.0000
O21A O 0.83232(10) 0.13807(12) 0.00832(11)
O21A O 0.88807(12) 0.08232(10) 0.24168(11)
Zn2 Zn 0.37578(2) 0.436884(18) 0.775396(18)
N1 N 0.35658(14) 0.45012(12) 0.75630(14)
C1 C 0.34167(16) 0.45954(14) 0.76389(17)
H1 H 0.3387 0.4566 0.7767
N2 N 0.33038(12) 0.47283(12) 0.75514(13)
C2 C 0.33600(18) 0.47555(16) 0.73682(16)
C3 C 0.35175(18) 0.46633(16) 0.72682(17)
C4 C 0.36156(19) 0.45317(19) 0.73683(19)
N3 N 0.35412(15) 0.47379(13) 0.70834(12)
C5 C 0.33916(17) 0.48642(17) 0.70831(18)
H5 H 0.3364 0.4937 0.6973
N5 N 0.37654(15) 0.44332(13) 0.72809(12)
H10A H 0.3795 0.4457 0.7162
H10B H 0.3829 0.4348 0.7345
C11 C 0.3045(2) 0.4709(2) 0.8027(2)
O11A O 0.29480(17) 0.47684(16) 0.78896(14)
O11B O 0.32208(16) 0.47244(17) 0.80419(15)
C12 C 0.2939(2) 0.45977(17) 0.81824(18)
C13 C 0.30344(19) 0.4512(2) 0.83283(18)
H13 H 0.3169 0.4518 0.8332
C14 C 0.29351(18) 0.4412(2) 0.84767(19)
H14 H 0.3005 0.4356 0.8578
C15 C 0.27419(19) 0.4395(2) 0.84733(18)
C16 C 0.2652(2) 0.4471(3) 0.8319(2)
H16 H 0.2520 0.4447 0.8303
C17 C 0.2746(2) 0.4584(3) 0.8179(2)
H17 H 0.2675 0.4649 0.8084
C21 C 0.2322(2) 0.3988(2) 0.9070(2)
O21A O 0.24168(11) 0.38807(12) 0.91768(10)
O21B O 0.21475(14) 0.3996(2) 0.90833(18)
C22 C 0.24332(19) 0.40962(17) 0.89157(17)
C23 C 0.26226(18) 0.4099(2) 0.89123(18)
H23 H 0.2692 0.4034 0.9008
C24 C 0.27234(19) 0.4198(2) 0.8765(2)
H24 H 0.2858 0.4200 0.8768
C25 C 0.2634(2) 0.4290(2) 0.86214(18)
C26 C 0.2440(2) 0.4296(3) 0.8631(2)
H26 H 0.2370 0.4371 0.8544
C27 C 0.2344(2) 0.4191(3) 0.8772(2)
H27 H 0.2209 0.4185 0.8767
C31 C 0.3543(2) 0.4252(2) 0.8048(2)
O31A O 0.36628(14) 0.43832(11) 0.80126(11)
O31B O 0.34862(18) 0.41450(14) 0.79228(12)
C32 C 0.34894(15) 0.42114(16) 0.82589(17)
C33 C 0.33754(18) 0.40605(19) 0.83087(18)
H33 H 0.3324 0.3982 0.8212
C34 C 0.3334(2) 0.40208(19) 0.85018(18)
H34A H 0.3257 0.3915 0.8534
C35 C 0.34052(17) 0.41367(18) 0.86418(16)
C36 C 0.35179(17) 0.42890(17) 0.85932(18)
H36A H 0.3566 0.4369 0.8690
C37 C 0.35620(18) 0.43270(17) 0.84000(16)
H37A H 0.3641 0.4431 0.8368
C31 C 0.3248(2) 0.3957(2) 0.9452(2)
O31A O 0.31168(11) 0.38372(14) 0.94874(11)
O31B O 0.33550(14) 0.40138(18) 0.95772(12)
C32 C 0.32886(16) 0.40106(15) 0.92411(17)
C33 C 0.34395(19) 0.41246(18) 0.91913(18)
H33 H 0.3518 0.4176 0.9288
C34 C 0.34792(19) 0.4166(2) 0.89982(18)
H34A H 0.3585 0.4243 0.8966
C35 C 0.33633(18) 0.40948(17) 0.88582(16)
C36 C 0.32110(17) 0.39821(17) 0.89068(18)
H36A H 0.3131 0.3934 0.8810
C37 C 0.31730(17) 0.39380(18) 0.91000(16)
H37A H 0.3069 0.3859 0.9132
Zn1 Zn 0.26054(2) 0.43967(2) 0.97986(2)
Zn2 Zn 0.313116(18) 0.37422(2) 0.974604(18)
N1 N 0.29988(12) 0.39342(14) 0.99370(14)
C1 C 0.29046(14) 0.40833(16) 0.98611(17)
H1 H 0.2934 0.4113 0.9733
N2 N 0.27717(12) 0.41962(12) 0.99486(13)
C2 C 0.27445(16) 0.41400(18) 1.01318(16)
C3 C 0.28367(16) 0.39825(18) 1.02318(17)
C4 C 0.29683(19) 0.38844(19) 1.01317(19)
N3 N 0.27621(13) 0.39588(15) 1.04166(12)
C5 C 0.26358(17) 0.41084(17) 1.04169(18)
H5 H 0.2563 0.4136 1.0527
N4 N 0.26165(13) 0.42179(14) 1.02558(14)
N5 N 0.30668(13) 0.37346(15) 1.02191(12)
H10A H 0.3043 0.3705 1.0338
H10B H 0.3152 0.3671 1.0155
C11 C 0.2791(2) 0.4455(2) 0.9473(2)
O11A O 0.27316(16) 0.45520(17) 0.96104(14)
O11B O 0.27756(17) 0.42792(16) 0.94581(15)
C12 C 0.29023(17) 0.4561(2) 0.93176(18)
C13 C 0.2988(2) 0.44656(19) 0.91717(18)
H13 H 0.2982 0.4331 0.9168
C14 C 0.3088(2) 0.45649(18) 0.90233(19)
H14 H 0.3144 0.4495 0.8922
C15 C 0.3105(2) 0.47581(19) 0.90267(18)
C16 C 0.3029(3) 0.4848(2) 0.9181(2)
H16 H 0.3053 0.4980 0.9197
C17 C 0.2916(3) 0.4754(2) 0.9321(2)
H17 H 0.2851 0.4825 0.9416
C21 C 0.3512(2) 0.5178(2) 0.8430(2)
O21A O 0.36193(12) 0.50832(11) 0.83232(10)
O21B O 0.3504(2) 0.53525(14) 0.84167(18)
C22 C 0.34038(17) 0.50668(19) 0.85843(17)
C23 C 0.3401(2) 0.48774(18) 0.85877(18)
H23 H 0.3466 0.4808 0.8492
C24 C 0.3302(2) 0.47766(19) 0.8735(2)
H24 H 0.3300 0.4642 0.8732
C25 C 0.3210(2) 0.4866(2) 0.88786(18)
C26 C 0.3204(3) 0.5060(2) 0.8869(2)
H26 H 0.3129 0.5130 0.8956
C27 C 0.3309(3) 0.5156(2) 0.8728(2)
H27 H 0.3315 0.5291 0.8733
Zn1 Zn 0.23946(2) 0.43967(2) 1.02014(2)
Zn2 Zn 0.275396(18) 0.37578(2) 1.063116(18)
Zn2 Zn 0.224604(18) 0.37578(2) 0.936884(18)
N3 N 0.39588(15) 0.45834(12) 0.77621(13)
N3 N 0.29166(12) 0.35412(15) 0.97379(13)
N4 N 0.23835(13) 0.42179(14) 0.97442(14)
O1 O 0.2500 0.45618(13) 1.0000
O21A O 0.33232(10) 0.36193(12) 0.99168(11)
O21A O 0.38807(12) 0.41768(10) 0.75832(11)
Zn1 Zn 0.72986(2) 0.68967(2) 0.98946(2)
Zn2 Zn 0.724604(18) 0.62422(2) 0.936884(18)
N1 N 0.74370(14) 0.64342(14) 0.95012(12)
C1 C 0.73611(17) 0.65833(16) 0.95954(14)
H1 H 0.7233 0.6613 0.9566
N2 N 0.74486(13) 0.66962(12) 0.97283(12)
C2 C 0.76318(16) 0.66400(18) 0.97555(16)
C3 C 0.77318(17) 0.64825(18) 0.96633(16)
C4 C 0.76317(19) 0.63844(19) 0.95317(19)
N3 N 0.79166(12) 0.64588(15) 0.97379(13)
C5 C 0.79169(18) 0.66084(17) 0.98642(17)
H5 H 0.8027 0.6636 0.9937
N4 N 0.77558(14) 0.67179(14) 0.98835(13)
N5 N 0.77191(12) 0.62346(15) 0.94332(13)
H10A H 0.7838 0.6205 0.9457
H10B H 0.7655 0.6171 0.9348
O1 O 0.7500 0.70618(13) 1.0000
C11 C 0.6973(2) 0.6955(2) 0.9709(2)
O11A O 0.71104(14) 0.70520(17) 0.97684(16)
O11B O 0.69581(15) 0.67792(16) 0.97244(17)
C12 C 0.68176(18) 0.7061(2) 0.95977(17)
C13 C 0.66717(18) 0.69656(19) 0.9512(2)
H13 H 0.6668 0.6831 0.9518
C14 C 0.65233(19) 0.70649(18) 0.9412(2)
H14 H 0.6422 0.6995 0.9356
C15 C 0.65267(18) 0.72581(19) 0.9395(2)
C16 C 0.6681(2) 0.7348(2) 0.9471(3)
H16 H 0.6697 0.7480 0.9447
C17 C 0.6821(2) 0.7254(2) 0.9584(3)
H17 H 0.6916 0.7325 0.9649
C21 C 0.5930(2) 0.7678(2) 0.8988(2)
O21A O 0.58232(10) 0.75832(11) 0.88807(12)
O21B O 0.59167(18) 0.78525(14) 0.8996(2)
C22 C 0.60843(17) 0.75668(19) 0.90962(17)
C23 C 0.60877(18) 0.73774(18) 0.9099(2)
H23 H 0.5992 0.7308 0.9034
C24 C 0.6235(2) 0.72766(19) 0.9198(2)
H24 H 0.6232 0.7142 0.9200
C25 C 0.63786(18) 0.7366(2) 0.9290(2)
C26 C 0.6369(2) 0.7560(2) 0.9296(3)
H26 H 0.6456 0.7630 0.9371
C27 C 0.6228(2) 0.7656(2) 0.9191(3)
H27 H 0.6233 0.7791 0.9185
C31 C 0.6952(2) 0.6457(2) 0.9252(2)
O31A O 0.69874(11) 0.63372(14) 0.93832(11)
O31B O 0.70772(12) 0.65138(18) 0.91450(14)
C32 C 0.67411(17) 0.65106(15) 0.92114(16)
C33 C 0.66913(18) 0.66246(18) 0.90605(19)
H33 H 0.6788 0.6676 0.8982
C34 C 0.64982(18) 0.6666(2) 0.90208(19)
H34A H 0.6466 0.6743 0.8915
C35 C 0.63582(16) 0.65948(17) 0.91367(18)
C36 C 0.64068(18) 0.64821(17) 0.92890(17)
H36A H 0.6310 0.6434 0.9369
C37 C 0.66000(16) 0.64380(18) 0.93270(17)
H37A H 0.6632 0.6359 0.9431
C31 C 0.5548(2) 0.6752(2) 0.8957(2)
O31A O 0.55126(11) 0.68832(11) 0.88372(14)
O31B O 0.54228(12) 0.66450(14) 0.90138(18)
C32 C 0.57589(17) 0.67114(16) 0.90106(15)
C33 C 0.58087(18) 0.65605(19) 0.91246(18)
H33 H 0.5712 0.6482 0.9176
C34 C 0.60018(18) 0.65208(19) 0.9166(2)
H34A H 0.6034 0.6415 0.9243
C35 C 0.61418(16) 0.66367(18) 0.90948(17)
C36 C 0.60932(18) 0.67890(17) 0.89821(17)
H36A H 0.6190 0.6869 0.8934
C37 C 0.59000(16) 0.68270(17) 0.89380(18)
H37A H 0.5868 0.6931 0.8859
Zn2 Zn 0.525396(18) 0.686884(18) 0.87422(2)
N1 N 0.50630(14) 0.70012(12) 0.89342(14)
C1 C 0.51389(17) 0.70954(14) 0.90833(16)
H1 H 0.5267 0.7066 0.9113
N2 N 0.50514(13) 0.72283(12) 0.91962(12)
C2 C 0.48682(16) 0.72555(16) 0.91400(18)
C3 C 0.47682(17) 0.71633(16) 0.89825(18)
C4 C 0.48683(19) 0.70317(19) 0.88844(19)
N3 N 0.45834(12) 0.72379(13) 0.89588(15)
C5 C 0.45831(18) 0.73642(17) 0.91084(17)
H5 H 0.4473 0.7437 0.9136
N5 N 0.47809(12) 0.69332(13) 0.87346(15)
H10A H 0.4662 0.6957 0.8705
H10B H 0.4845 0.6848 0.8671
C11 C 0.5527(2) 0.7209(2) 0.9455(2)
O11A O 0.53896(14) 0.72684(16) 0.95520(17)
O11B O 0.55419(15) 0.72244(17) 0.92792(16)
C12 C 0.56824(18) 0.70977(17) 0.9561(2)
C13 C 0.58283(18) 0.7012(2) 0.94656(19)
H13 H 0.5832 0.7018 0.9331
C14 C 0.59767(19) 0.6912(2) 0.95649(18)
H14 H 0.6078 0.6856 0.9495
C15 C 0.59733(18) 0.6895(2) 0.97581(19)
C16 C 0.5819(2) 0.6971(3) 0.9848(2)
H16 H 0.5803 0.6947 0.9980
C17 C 0.5679(2) 0.7084(3) 0.9754(2)
H17 H 0.5584 0.7149 0.9825
C21 C 0.6570(2) 0.6488(2) 1.0178(2)
O21A O 0.66768(10) 0.63807(12) 1.00832(11)
O21B O 0.65833(18) 0.6496(2) 1.03525(14)
C22 C 0.64157(17) 0.65962(17) 1.00668(19)
C23 C 0.64123(18) 0.6599(2) 0.98774(18)
H23 H 0.6508 0.6534 0.9808
C24 C 0.6265(2) 0.6698(2) 0.97766(19)
H24 H 0.6268 0.6700 0.9642
C25 C 0.61214(18) 0.6790(2) 0.9866(2)
C26 C 0.6131(2) 0.6796(3) 1.0060(2)
H26 H 0.6044 0.6871 1.0130
C27 C 0.6272(2) 0.6691(3) 1.0156(2)
H27 H 0.6267 0.6685 1.0291
Zn1 Zn 0.77014(2) 0.68967(2) 1.01054(2)
Zn2 Zn 0.686884(18) 0.62578(2) 1.025396(18)
Zn2 Zn 0.813116(18) 0.62578(2) 0.974604(18)
N3 N 0.72379(13) 0.60412(15) 0.95834(12)
N3 N 0.52621(13) 0.70834(12) 0.85412(15)
N4 N 0.72442(14) 0.67179(14) 1.01165(13)
O21A O 0.50832(11) 0.66768(10) 0.86193(12)
O21A O 0.74168(11) 0.61193(12) 0.91768(10)
Zn2 Zn 0.275396(18) 0.12422(2) 0.563116(18)
N1 N 0.25630(14) 0.14342(14) 0.54988(12)
C1 C 0.26389(17) 0.15833(16) 0.54046(14)
H1 H 0.2767 0.1613 0.5434
N2 N 0.25514(13) 0.16962(12) 0.52717(12)
C2 C 0.23682(16) 0.16400(18) 0.52445(16)
C3 C 0.22682(17) 0.14825(18) 0.53367(16)
C4 C 0.23683(19) 0.13844(19) 0.54683(19)
N3 N 0.20834(12) 0.14588(15) 0.52621(13)
C5 C 0.20831(18) 0.16084(17) 0.51358(17)
H5 H 0.1973 0.1636 0.5063
N5 N 0.22809(12) 0.12346(15) 0.55668(13)
H10A H 0.2162 0.1205 0.5543
H10B H 0.2345 0.1171 0.5652
C11 C 0.3027(2) 0.1955(2) 0.5291(2)
O11A O 0.28896(14) 0.20520(17) 0.52316(16)
O11B O 0.30419(15) 0.17792(16) 0.52756(17)
C12 C 0.31824(18) 0.2061(2) 0.54023(17)
C13 C 0.33283(18) 0.19656(19) 0.5488(2)
H13 H 0.3332 0.1831 0.5482
C14 C 0.34767(19) 0.20649(18) 0.5588(2)
H14 H 0.3578 0.1995 0.5644
C15 C 0.34733(18) 0.22581(19) 0.5605(2)
C16 C 0.3319(2) 0.2348(2) 0.5529(3)
H16 H 0.3303 0.2480 0.5553
C17 C 0.3179(2) 0.2254(2) 0.5416(3)
H17 H 0.3084 0.2325 0.5351
C21 C 0.4070(2) 0.2678(2) 0.6012(2)
O21A O 0.41768(10) 0.25832(11) 0.61193(12)
O21B O 0.40833(18) 0.28525(14) 0.6004(2)
C22 C 0.39157(17) 0.25668(19) 0.59038(17)
C23 C 0.39123(18) 0.23774(18) 0.5901(2)
H23 H 0.4008 0.2308 0.5966
C24 C 0.3765(2) 0.22766(19) 0.5802(2)
H24 H 0.3768 0.2142 0.5800
C25 C 0.36214(18) 0.2366(2) 0.5710(2)
C26 C 0.3631(2) 0.2560(2) 0.5704(3)
H26 H 0.3544 0.2630 0.5629
C27 C 0.3772(2) 0.2656(2) 0.5809(3)
H27 H 0.3767 0.2791 0.5815
C31 C 0.3048(2) 0.1457(2) 0.5748(2)
O31A O 0.30126(11) 0.13372(14) 0.56168(11)
O31B O 0.29228(12) 0.15138(18) 0.58550(14)
C32 C 0.32589(17) 0.15106(15) 0.57886(16)
C33 C 0.33087(18) 0.16246(18) 0.59395(19)
H33 H 0.3212 0.1676 0.6018
C34 C 0.35018(18) 0.1666(2) 0.59792(19)
H34A H 0.3534 0.1743 0.6085
C35 C 0.36418(16) 0.15948(17) 0.58633(18)
C36 C 0.35932(18) 0.14821(17) 0.57110(17)
H36A H 0.3690 0.1434 0.5631
C37 C 0.34000(16) 0.14380(18) 0.56730(17)
H37A H 0.3368 0.1359 0.5569
C31 C 0.4452(2) 0.1752(2) 0.6043(2)
O31A O 0.44874(11) 0.18832(11) 0.61628(14)
O31B O 0.45772(12) 0.16450(14) 0.59862(18)
C32 C 0.42411(17) 0.17114(16) 0.59894(15)
C33 C 0.41913(18) 0.15605(19) 0.58754(18)
H33 H 0.4288 0.1482 0.5824
C34 C 0.39982(18) 0.15208(19) 0.5834(2)
H34A H 0.3966 0.1415 0.5757
C35 C 0.38582(16) 0.16367(18) 0.59052(17)
C36 C 0.39068(18) 0.17890(17) 0.60179(17)
H36A H 0.3810 0.1869 0.6066
C37 C 0.41000(16) 0.18270(17) 0.60620(18)
H37A H 0.4132 0.1931 0.6141
Zn2 Zn 0.474604(18) 0.186884(18) 0.62578(2)
N1 N 0.49370(14) 0.20012(12) 0.60658(14)
C1 C 0.48611(17) 0.20954(14) 0.59167(16)
H1 H 0.4733 0.2066 0.5887
N2 N 0.49486(13) 0.22283(12) 0.58038(12)
C2 C 0.51318(16) 0.22555(16) 0.58600(18)
C3 C 0.52318(17) 0.21633(16) 0.60175(18)
C4 C 0.51317(19) 0.20317(19) 0.61156(19)
N3 N 0.54166(12) 0.22379(13) 0.60412(15)
C5 C 0.54169(18) 0.23642(17) 0.58916(17)
H5 H 0.5527 0.2437 0.5864
N5 N 0.52191(12) 0.19332(13) 0.62654(15)
H10A H 0.5338 0.1957 0.6295
H10B H 0.5155 0.1848 0.6329
C11 C 0.4473(2) 0.2209(2) 0.5545(2)
O11A O 0.46104(14) 0.22684(16) 0.54480(17)
O11B O 0.44581(15) 0.22244(17) 0.57208(16)
C12 C 0.43176(18) 0.20977(17) 0.5439(2)
C13 C 0.41717(18) 0.2012(2) 0.55344(19)
H13 H 0.4168 0.2018 0.5669
C14 C 0.40233(19) 0.1912(2) 0.54351(18)
H14 H 0.3922 0.1856 0.5505
C15 C 0.40267(18) 0.1895(2) 0.52419(19)
C16 C 0.4181(2) 0.1971(3) 0.5152(2)
H16 H 0.4197 0.1947 0.5020
C17 C 0.4321(2) 0.2084(3) 0.5246(2)
H17 H 0.4416 0.2149 0.5175
C21 C 0.3430(2) 0.1488(2) 0.4822(2)
O21A O 0.33232(10) 0.13807(12) 0.49168(11)
O21B O 0.34167(18) 0.1496(2) 0.46475(14)
C22 C 0.35843(17) 0.15962(17) 0.49332(19)
C23 C 0.35877(18) 0.1599(2) 0.51226(18)
H23 H 0.3492 0.1534 0.5192
C24 C 0.3735(2) 0.1698(2) 0.52234(19)
H24 H 0.3732 0.1700 0.5358
C25 C 0.38786(18) 0.1790(2) 0.5134(2)
C26 C 0.3869(2) 0.1796(3) 0.4940(2)
H26 H 0.3956 0.1871 0.4870
C27 C 0.3728(2) 0.1691(3) 0.4844(2)
H27 H 0.3733 0.1685 0.4709
N3 N 0.27621(13) 0.10412(15) 0.54166(12)
N3 N 0.47379(13) 0.20834(12) 0.64588(15)
O21A O 0.49168(11) 0.16768(10) 0.63807(12)
O21A O 0.25832(11) 0.11193(12) 0.58232(10)
Zn1 Zn 0.22986(2) 0.81033(2) 0.01054(2)
Zn2 Zn 0.224604(18) 0.87578(2) 0.063116(18)
N1 N 0.24370(14) 0.85658(14) 0.04988(12)
C1 C 0.23611(17) 0.84167(16) 0.04046(14)
H1 H 0.2233 0.8387 0.0434
N2 N 0.24486(13) 0.83038(12) 0.02717(12)
C2 C 0.26318(16) 0.83600(18) 0.02445(16)
C3 C 0.27318(17) 0.85175(18) 0.03367(16)
C4 C 0.26317(19) 0.86156(19) 0.04683(19)
N3 N 0.29166(12) 0.85412(15) 0.02621(13)
C5 C 0.29169(18) 0.83916(17) 0.01358(17)
H5 H 0.3027 0.8364 0.0063
N4 N 0.27558(14) 0.82821(14) 0.01165(13)
N5 N 0.27191(12) 0.87654(15) 0.05668(13)
H10A H 0.2838 0.8795 0.0543
H10B H 0.2655 0.8829 0.0652
O1 O 0.2500 0.79382(13) 0.0000
C11 C 0.1973(2) 0.8045(2) 0.0291(2)
O11A O 0.21104(14) 0.79480(17) 0.02316(16)
O11B O 0.19581(15) 0.82208(16) 0.02756(17)
C12 C 0.18176(18) 0.7939(2) 0.04023(17)
C13 C 0.16717(18) 0.80344(19) 0.0488(2)
H13 H 0.1668 0.8169 0.0482
C14 C 0.15233(19) 0.79351(18) 0.0588(2)
H14 H 0.1422 0.8005 0.0644
C15 C 0.15267(18) 0.77419(19) 0.0605(2)
C16 C 0.1681(2) 0.7652(2) 0.0529(3)
H16 H 0.1697 0.7520 0.0553
C17 C 0.1821(2) 0.7746(2) 0.0416(3)
H17 H 0.1916 0.7675 0.0351
C21 C 0.0930(2) 0.7322(2) 0.1012(2)
O21A O 0.08232(10) 0.74168(11) 0.11193(12)
O21B O 0.09167(18) 0.71475(14) 0.1004(2)
C22 C 0.10843(17) 0.74332(19) 0.09038(17)
C23 C 0.10877(18) 0.76226(18) 0.0901(2)
H23 H 0.0992 0.7692 0.0966
C24 C 0.1235(2) 0.77234(19) 0.0802(2)
H24 H 0.1232 0.7858 0.0800
C25 C 0.13786(18) 0.7634(2) 0.0710(2)
C26 C 0.1369(2) 0.7440(2) 0.0704(3)
H26 H 0.1456 0.7370 0.0629
C27 C 0.1228(2) 0.7344(2) 0.0809(3)
H27 H 0.1233 0.7209 0.0815
C31 C 0.1952(2) 0.8543(2) 0.0748(2)
O31A O 0.19874(11) 0.86628(14) 0.06168(11)
O31B O 0.20772(12) 0.84862(18) 0.08550(14)
C32 C 0.17411(17) 0.84894(15) 0.07886(16)
C33 C 0.16913(18) 0.83754(18) 0.09395(19)
H33 H 0.1788 0.8324 0.1018
C34 C 0.14982(18) 0.8334(2) 0.09792(19)
H34A H 0.1466 0.8257 0.1085
C35 C 0.13582(16) 0.84052(17) 0.08633(18)
C36 C 0.14068(18) 0.85179(17) 0.07110(17)
H36A H 0.1310 0.8566 0.0631
C37 C 0.16000(16) 0.85620(18) 0.06730(17)
H37A H 0.1632 0.8641 0.0569
C31 C 0.0548(2) 0.8248(2) 0.1043(2)
O31A O 0.05126(11) 0.81168(11) 0.11628(14)
O31B O 0.04228(12) 0.83550(14) 0.09862(18)
C32 C 0.07589(17) 0.82886(16) 0.09894(15)
C33 C 0.08087(18) 0.84395(19) 0.08754(18)
H33 H 0.0712 0.8518 0.0824
C34 C 0.10018(18) 0.84792(19) 0.0834(2)
H34A H 0.1034 0.8585 0.0757
C35 C 0.11418(16) 0.83633(18) 0.09052(17)
C36 C 0.10932(18) 0.82110(17) 0.10179(17)
H36A H 0.1190 0.8131 0.1066
C37 C 0.09000(16) 0.81730(17) 0.10620(18)
H37A H 0.0868 0.8069 0.1141
Zn1 Zn 0.02014(2) 0.76054(2) 0.06033(2)
Zn2 Zn 0.025396(18) 0.813116(18) 0.12578(2)
N1 N 0.00630(14) 0.79988(12) 0.10658(14)
C1 C 0.01389(17) 0.79046(14) 0.09167(16)
H1 H 0.0267 0.7934 0.0887
N2 N 0.00514(13) 0.77717(12) 0.08038(12)
C2 C -0.01318(16) 0.77445(16) 0.08600(18)
C3 C -0.02318(17) 0.78367(16) 0.10175(18)
C4 C -0.01317(19) 0.79683(19) 0.11156(19)
N3 N -0.04166(12) 0.77621(13) 0.10412(15)
C5 C -0.04169(18) 0.76358(17) 0.08916(17)
H5 H -0.0527 0.7563 0.0864
N4 N -0.02558(14) 0.76165(13) 0.07821(14)
N5 N -0.02191(12) 0.80668(13) 0.12654(15)
H10A H -0.0338 0.8043 0.1295
H10B H -0.0155 0.8152 0.1329
C11 C 0.0527(2) 0.7791(2) 0.0545(2)
O11A O 0.03896(14) 0.77316(16) 0.04480(17)
O11B O 0.05419(15) 0.77756(17) 0.07208(16)
C12 C 0.06824(18) 0.79023(17) 0.0439(2)
C13 C 0.08283(18) 0.7988(2) 0.05344(19)
H13 H 0.0832 0.7982 0.0669
C14 C 0.09767(19) 0.8088(2) 0.04351(18)
H14 H 0.1078 0.8144 0.0505
C15 C 0.09733(18) 0.8105(2) 0.02419(19)
C16 C 0.0819(2) 0.8029(3) 0.0152(2)
H16 H 0.0803 0.8053 0.0020
C17 C 0.0679(2) 0.7916(3) 0.0246(2)
H17 H 0.0584 0.7851 0.0175
C21 C 0.1570(2) 0.8512(2) -0.0178(2)
O21A O 0.16768(10) 0.86193(12) -0.00832(11)
O21B O 0.15833(18) 0.8504(2) -0.03525(14)
C22 C 0.14157(17) 0.84038(17) -0.00668(19)
C23 C 0.14123(18) 0.8401(2) 0.01226(18)
H23 H 0.1508 0.8466 0.0192
C24 C 0.1265(2) 0.8302(2) 0.02234(19)
H24 H 0.1268 0.8300 0.0358
C25 C 0.11214(18) 0.8210(2) 0.0134(2)
C26 C 0.1131(2) 0.8204(3) -0.0060(2)
H26 H 0.1044 0.8129 -0.0130
C27 C 0.1272(2) 0.8309(3) -0.0156(2)
H27 H 0.1267 0.8315 -0.0291
Zn1 Zn 0.27014(2) 0.81033(2) -0.01054(2)
Zn1 Zn -0.02014(2) 0.73946(2) 0.06033(2)
Zn2 Zn -0.063116(18) 0.775396(18) 0.12422(2)
Zn2 Zn 0.186884(18) 0.87422(2) -0.025396(18)
Zn2 Zn 0.063116(18) 0.724604(18) 0.12422(2)
Zn2 Zn 0.313116(18) 0.87422(2) 0.025396(18)
N3 N 0.22379(13) 0.89588(15) 0.04166(12)
N3 N 0.02621(13) 0.79166(12) 0.14588(15)
N4 N 0.22442(14) 0.82821(14) -0.01165(13)
N4 N 0.02558(14) 0.73835(13) 0.07821(14)
O1 O 0.0000 0.7500 0.04382(13)
O21A O 0.00832(11) 0.83232(10) 0.13807(12)
O21A O 0.24168(11) 0.88807(12) 0.08232(10)
Zn2 Zn 0.775396(18) 0.37578(2) 0.436884(18)
N1 N 0.75630(14) 0.35658(14) 0.45012(12)
C1 C 0.76389(17) 0.34167(16) 0.45954(14)
H1 H 0.7767 0.3387 0.4566
N2 N 0.75514(13) 0.33038(12) 0.47283(12)
C2 C 0.73682(16) 0.33600(18) 0.47555(16)
C3 C 0.72682(17) 0.35175(18) 0.46633(16)
C4 C 0.73683(19) 0.36156(19) 0.45317(19)
N3 N 0.70834(12) 0.35412(15) 0.47379(13)
C5 C 0.70831(18) 0.33916(17) 0.48642(17)
H5 H 0.6973 0.3364 0.4937
N5 N 0.72809(12) 0.37654(15) 0.44332(13)
H10A H 0.7162 0.3795 0.4457
H10B H 0.7345 0.3829 0.4348
C11 C 0.8027(2) 0.3045(2) 0.4709(2)
O11A O 0.78896(14) 0.29480(17) 0.47684(16)
O11B O 0.80419(15) 0.32208(16) 0.47244(17)
C12 C 0.81824(18) 0.2939(2) 0.45977(17)
C13 C 0.83283(18) 0.30344(19) 0.4512(2)
H13 H 0.8332 0.3169 0.4518
C14 C 0.84767(19) 0.29351(18) 0.4412(2)
H14 H 0.8578 0.3005 0.4356
C15 C 0.84733(18) 0.27419(19) 0.4395(2)
C16 C 0.8319(2) 0.2652(2) 0.4471(3)
H16 H 0.8303 0.2520 0.4447
C17 C 0.8179(2) 0.2746(2) 0.4584(3)
H17 H 0.8084 0.2675 0.4649
C21 C 0.9070(2) 0.2322(2) 0.3988(2)
O21A O 0.91768(10) 0.24168(11) 0.38807(12)
O21B O 0.90833(18) 0.21475(14) 0.3996(2)
C22 C 0.89157(17) 0.24332(19) 0.40962(17)
C23 C 0.89123(18) 0.26226(18) 0.4099(2)
H23 H 0.9008 0.2692 0.4034
C24 C 0.8765(2) 0.27234(19) 0.4198(2)
H24 H 0.8768 0.2858 0.4200
C25 C 0.86214(18) 0.2634(2) 0.4290(2)
C26 C 0.8631(2) 0.2440(2) 0.4296(3)
H26 H 0.8544 0.2370 0.4371
C27 C 0.8772(2) 0.2344(2) 0.4191(3)
H27 H 0.8767 0.2209 0.4185
C31 C 0.8048(2) 0.3543(2) 0.4252(2)
O31A O 0.80126(11) 0.36628(14) 0.43832(11)
O31B O 0.79228(12) 0.34862(18) 0.41450(14)
C32 C 0.82589(17) 0.34894(15) 0.42114(16)
C33 C 0.83087(18) 0.33754(18) 0.40605(19)
H33 H 0.8212 0.3324 0.3982
C34 C 0.85018(18) 0.3334(2) 0.40208(19)
H34A H 0.8534 0.3257 0.3915
C35 C 0.86418(16) 0.34052(17) 0.41367(18)
C36 C 0.85932(18) 0.35179(17) 0.42890(17)
H36A H 0.8690 0.3566 0.4369
C37 C 0.84000(16) 0.35620(18) 0.43270(17)
H37A H 0.8368 0.3641 0.4431
C31 C 0.9452(2) 0.3248(2) 0.3957(2)
O31A O 0.94874(11) 0.31168(11) 0.38372(14)
O31B O 0.95772(12) 0.33550(14) 0.40138(18)
C32 C 0.92411(17) 0.32886(16) 0.40106(15)
C33 C 0.91913(18) 0.34395(19) 0.41246(18)
H33 H 0.9288 0.3518 0.4176
C34 C 0.89982(18) 0.34792(19) 0.4166(2)
H34A H 0.8966 0.3585 0.4243
C35 C 0.88582(16) 0.33633(18) 0.40948(17)
C36 C 0.89068(18) 0.32110(17) 0.39821(17)
H36A H 0.8810 0.3131 0.3934
C37 C 0.91000(16) 0.31730(17) 0.39380(18)
H37A H 0.9132 0.3069 0.3859
Zn1 Zn 0.97986(2) 0.26054(2) 0.43967(2)
Zn2 Zn 0.974604(18) 0.313116(18) 0.37422(2)
N1 N 0.99370(14) 0.29988(12) 0.39342(14)
C1 C 0.98611(17) 0.29046(14) 0.40833(16)
H1 H 0.9733 0.2934 0.4113
N2 N 0.99486(13) 0.27717(12) 0.41962(12)
C2 C 1.01318(16) 0.27445(16) 0.41400(18)
C3 C 1.02318(17) 0.28367(16) 0.39825(18)
C4 C 1.01317(19) 0.29683(19) 0.38844(19)
N3 N 1.04166(12) 0.27621(13) 0.39588(15)
C5 C 1.04169(18) 0.26358(17) 0.41084(17)
H5 H 1.0527 0.2563 0.4136
N4 N 1.02558(14) 0.26165(13) 0.42179(14)
N5 N 1.02191(12) 0.30668(13) 0.37346(15)
H10A H 1.0338 0.3043 0.3705
H10B H 1.0155 0.3152 0.3671
C11 C 0.9473(2) 0.2791(2) 0.4455(2)
O11A O 0.96104(14) 0.27316(16) 0.45520(17)
O11B O 0.94581(15) 0.27756(17) 0.42792(16)
C12 C 0.93176(18) 0.29023(17) 0.4561(2)
C13 C 0.91717(18) 0.2988(2) 0.44656(19)
H13 H 0.9168 0.2982 0.4331
C14 C 0.90233(19) 0.3088(2) 0.45649(18)
H14 H 0.8922 0.3144 0.4495
C15 C 0.90267(18) 0.3105(2) 0.47581(19)
C16 C 0.9181(2) 0.3029(3) 0.4848(2)
H16 H 0.9197 0.3053 0.4980
C17 C 0.9321(2) 0.2916(3) 0.4754(2)
H17 H 0.9416 0.2851 0.4825
C21 C 0.8430(2) 0.3512(2) 0.5178(2)
O21A O 0.83232(10) 0.36193(12) 0.50832(11)
O21B O 0.84167(18) 0.3504(2) 0.53525(14)
C22 C 0.85843(17) 0.34038(17) 0.50668(19)
C23 C 0.85877(18) 0.3401(2) 0.48774(18)
H23 H 0.8492 0.3466 0.4808
C24 C 0.8735(2) 0.3302(2) 0.47766(19)
H24 H 0.8732 0.3300 0.4642
C25 C 0.88786(18) 0.3210(2) 0.4866(2)
C26 C 0.8869(2) 0.3204(3) 0.5060(2)
H26 H 0.8956 0.3129 0.5130
C27 C 0.8728(2) 0.3309(3) 0.5156(2)
H27 H 0.8733 0.3315 0.5291
Zn1 Zn 1.02014(2) 0.23946(2) 0.43967(2)
Zn2 Zn 1.063116(18) 0.275396(18) 0.37578(2)
Zn2 Zn 0.936884(18) 0.224604(18) 0.37578(2)
N3 N 0.77621(13) 0.39588(15) 0.45834(12)
N3 N 0.97379(13) 0.29166(12) 0.35412(15)
N4 N 0.97442(14) 0.23835(13) 0.42179(14)
O1 O 1.0000 0.2500 0.45618(13)
O21A O 0.99168(11) 0.33232(10) 0.36193(12)
O21A O 0.75832(11) 0.38807(12) 0.41768(10)
Zn1 Zn 0.51054(2) 0.77014(2) 0.81033(2)
N1 N 0.54988(12) 0.75630(14) 0.85658(14)
C1 C 0.54046(14) 0.76389(17) 0.84167(16)
H1 H 0.5434 0.7767 0.8387
N2 N 0.52717(12) 0.75514(13) 0.83038(12)
C2 C 0.52445(16) 0.73682(16) 0.83600(18)
C3 C 0.53367(16) 0.72682(17) 0.85175(18)
C4 C 0.54683(19) 0.73683(19) 0.86156(19)
C5 C 0.51358(17) 0.70831(18) 0.83916(17)
H5 H 0.5063 0.6973 0.8364
N4 N 0.51165(13) 0.72442(14) 0.82821(14)
N5 N 0.55668(13) 0.72809(12) 0.87654(15)
H10A H 0.5543 0.7162 0.8795
H10B H 0.5652 0.7345 0.8829
O1 O 0.5000 0.7500 0.79382(13)
C11 C 0.5291(2) 0.8027(2) 0.8045(2)
O11A O 0.52316(16) 0.78896(14) 0.79480(17)
O11B O 0.52756(17) 0.80419(15) 0.82208(16)
C12 C 0.54023(17) 0.81824(18) 0.7939(2)
C13 C 0.5488(2) 0.83283(18) 0.80344(19)
H13 H 0.5482 0.8332 0.8169
C14 C 0.5588(2) 0.84767(19) 0.79351(18)
H14 H 0.5644 0.8578 0.8005
C15 C 0.5605(2) 0.84733(18) 0.77419(19)
C16 C 0.5529(3) 0.8319(2) 0.7652(2)
H16 H 0.5553 0.8303 0.7520
C17 C 0.5416(3) 0.8179(2) 0.7746(2)
H17 H 0.5351 0.8084 0.7675
C21 C 0.6012(2) 0.9070(2) 0.7322(2)
O21B O 0.6004(2) 0.90833(18) 0.71475(14)
C22 C 0.59038(17) 0.89157(17) 0.74332(19)
C23 C 0.5901(2) 0.89123(18) 0.76226(18)
H23 H 0.5966 0.9008 0.7692
C24 C 0.5802(2) 0.8765(2) 0.77234(19)
H24 H 0.5800 0.8768 0.7858
C25 C 0.5710(2) 0.86214(18) 0.7634(2)
C26 C 0.5704(3) 0.8631(2) 0.7440(2)
H26 H 0.5629 0.8544 0.7370
C27 C 0.5809(3) 0.8772(2) 0.7344(2)
H27 H 0.5815 0.8767 0.7209
C31 C 0.5748(2) 0.8048(2) 0.8543(2)
O31A O 0.56168(11) 0.80126(11) 0.86628(14)
O31B O 0.58550(14) 0.79228(12) 0.84862(18)
C32 C 0.57886(16) 0.82589(17) 0.84894(15)
C33 C 0.59395(19) 0.83087(18) 0.83754(18)
H33 H 0.6018 0.8212 0.8324
C34 C 0.59792(19) 0.85018(18) 0.8334(2)
H34A H 0.6085 0.8534 0.8257
C35 C 0.58633(18) 0.86418(16) 0.84052(17)
C36 C 0.57110(17) 0.85932(18) 0.85179(17)
H36A H 0.5631 0.8690 0.8566
C37 C 0.56730(17) 0.84000(16) 0.85620(18)
H37A H 0.5569 0.8368 0.8641
C31 C 0.6043(2) 0.9452(2) 0.8248(2)
O31A O 0.61628(14) 0.94874(11) 0.81168(11)
O31B O 0.59862(18) 0.95772(12) 0.83550(14)
C32 C 0.59894(15) 0.92411(17) 0.82886(16)
C33 C 0.58754(18) 0.91913(18) 0.84395(19)
H33 H 0.5824 0.9288 0.8518
C34 C 0.5834(2) 0.89982(18) 0.84792(19)
H34A H 0.5757 0.8966 0.8585
C35 C 0.59052(17) 0.88582(16) 0.83633(18)
C36 C 0.60179(17) 0.89068(18) 0.82110(17)
H36A H 0.6066 0.8810 0.8131
C37 C 0.60620(18) 0.91000(16) 0.81730(17)
H37A H 0.6141 0.9132 0.8069
Zn1 Zn 0.56033(2) 0.97986(2) 0.76054(2)
N1 N 0.60658(14) 0.99370(14) 0.79988(12)
C1 C 0.59167(16) 0.98611(17) 0.79046(14)
H1 H 0.5887 0.9733 0.7934
N2 N 0.58038(12) 0.99486(13) 0.77717(12)
C2 C 0.58600(18) 1.01318(16) 0.77445(16)
C3 C 0.60175(18) 1.02318(17) 0.78367(16)
C4 C 0.61156(19) 1.01317(19) 0.79683(19)
N3 N 0.60412(15) 1.04166(12) 0.77621(13)
C5 C 0.58916(17) 1.04169(18) 0.76358(17)
H5 H 0.5864 1.0527 0.7563
N4 N 0.57821(14) 1.02558(14) 0.76165(13)
N5 N 0.62654(15) 1.02191(12) 0.80668(13)
H10A H 0.6295 1.0338 0.8043
H10B H 0.6329 1.0155 0.8152
C11 C 0.5545(2) 0.9473(2) 0.7791(2)
O11A O 0.54480(17) 0.96104(14) 0.77316(16)
O11B O 0.57208(16) 0.94581(15) 0.77756(17)
C12 C 0.5439(2) 0.93176(18) 0.79023(17)
C13 C 0.55344(19) 0.91717(18) 0.7988(2)
H13 H 0.5669 0.9168 0.7982
C14 C 0.54351(18) 0.90233(19) 0.8088(2)
H14 H 0.5505 0.8922 0.8144
C15 C 0.52419(19) 0.90267(18) 0.8105(2)
C16 C 0.5152(2) 0.9181(2) 0.8029(3)
H16 H 0.5020 0.9197 0.8053
C17 C 0.5246(2) 0.9321(2) 0.7916(3)
H17 H 0.5175 0.9416 0.7851
C21 C 0.4822(2) 0.8430(2) 0.8512(2)
O21B O 0.46475(14) 0.84167(18) 0.8504(2)
C22 C 0.49332(19) 0.85843(17) 0.84038(17)
C23 C 0.51226(18) 0.85877(18) 0.8401(2)
H23 H 0.5192 0.8492 0.8466
C24 C 0.52234(19) 0.8735(2) 0.8302(2)
H24 H 0.5358 0.8732 0.8300
C25 C 0.5134(2) 0.88786(18) 0.8210(2)
C26 C 0.4940(2) 0.8869(2) 0.8204(3)
H26 H 0.4870 0.8956 0.8129
C27 C 0.4844(2) 0.8728(2) 0.8309(3)
H27 H 0.4709 0.8733 0.8315
Zn1 Zn 0.48946(2) 0.72986(2) 0.81033(2)
Zn1 Zn 0.56033(2) 1.02014(2) 0.73946(2)
Zn2 Zn 0.62422(2) 1.063116(18) 0.775396(18)
N4 N 0.48835(13) 0.77558(14) 0.82821(14)
N4 N 0.57821(14) 0.97442(14) 0.73835(13)
O1 O 0.54382(13) 1.0000 0.7500
O21A O 0.63807(12) 0.99168(11) 0.83232(10)
Zn1 Zn 0.98946(2) 0.22986(2) 0.31033(2)
N1 N 0.95012(12) 0.24370(14) 0.35658(14)
C1 C 0.95954(14) 0.23611(17) 0.34167(16)
H1 H 0.9566 0.2233 0.3387
N2 N 0.97283(12) 0.24486(13) 0.33038(12)
C2 C 0.97555(16) 0.26318(16) 0.33600(18)
C3 C 0.96633(16) 0.27318(17) 0.35175(18)
C4 C 0.95317(19) 0.26317(19) 0.36156(19)
C5 C 0.98642(17) 0.29169(18) 0.33916(17)
H5 H 0.9937 0.3027 0.3364
N4 N 0.98835(13) 0.27558(14) 0.32821(14)
N5 N 0.94332(13) 0.27191(12) 0.37654(15)
H10A H 0.9457 0.2838 0.3795
H10B H 0.9348 0.2655 0.3829
O1 O 1.0000 0.2500 0.29382(13)
C11 C 0.9709(2) 0.1973(2) 0.3045(2)
O11A O 0.97684(16) 0.21104(14) 0.29480(17)
O11B O 0.97244(17) 0.19581(15) 0.32208(16)
C12 C 0.95977(17) 0.18176(18) 0.2939(2)
C13 C 0.9512(2) 0.16717(18) 0.30344(19)
H13 H 0.9518 0.1668 0.3169
C14 C 0.9412(2) 0.15233(19) 0.29351(18)
H14 H 0.9356 0.1422 0.3005
C15 C 0.9395(2) 0.15267(18) 0.27419(19)
C16 C 0.9471(3) 0.1681(2) 0.2652(2)
H16 H 0.9447 0.1697 0.2520
C17 C 0.9584(3) 0.1821(2) 0.2746(2)
H17 H 0.9649 0.1916 0.2675
C21 C 0.8988(2) 0.0930(2) 0.2322(2)
O21B O 0.8996(2) 0.09167(18) 0.21475(14)
C22 C 0.90962(17) 0.10843(17) 0.24332(19)
C23 C 0.9099(2) 0.10877(18) 0.26226(18)
H23 H 0.9034 0.0992 0.2692
C24 C 0.9198(2) 0.1235(2) 0.27234(19)
H24 H 0.9200 0.1232 0.2858
C25 C 0.9290(2) 0.13786(18) 0.2634(2)
C26 C 0.9296(3) 0.1369(2) 0.2440(2)
H26 H 0.9371 0.1456 0.2370
C27 C 0.9191(3) 0.1228(2) 0.2344(2)
H27 H 0.9185 0.1233 0.2209
C31 C 0.9252(2) 0.1952(2) 0.3543(2)
O31A O 0.93832(11) 0.19874(11) 0.36628(14)
O31B O 0.91450(14) 0.20772(12) 0.34862(18)
C32 C 0.92114(16) 0.17411(17) 0.34894(15)
C33 C 0.90605(19) 0.16913(18) 0.33754(18)
H33 H 0.8982 0.1788 0.3324
C34 C 0.90208(19) 0.14982(18) 0.3334(2)
H34A H 0.8915 0.1466 0.3257
C35 C 0.91367(18) 0.13582(16) 0.34052(17)
C36 C 0.92890(17) 0.14068(18) 0.35179(17)
H36A H 0.9369 0.1310 0.3566
C37 C 0.93270(17) 0.16000(16) 0.35620(18)
H37A H 0.9431 0.1632 0.3641
C31 C 0.8957(2) 0.0548(2) 0.3248(2)
O31A O 0.88372(14) 0.05126(11) 0.31168(11)
O31B O 0.90138(18) 0.04228(12) 0.33550(14)
C32 C 0.90106(15) 0.07589(17) 0.32886(16)
C33 C 0.91246(18) 0.08087(18) 0.34395(19)
H33 H 0.9176 0.0712 0.3518
C34 C 0.9166(2) 0.10018(18) 0.34792(19)
H34A H 0.9243 0.1034 0.3585
C35 C 0.90948(17) 0.11418(16) 0.33633(18)
C36 C 0.89821(17) 0.10932(18) 0.32110(17)
H36A H 0.8934 0.1190 0.3131
C37 C 0.89380(18) 0.09000(16) 0.31730(17)
H37A H 0.8859 0.0868 0.3069
Zn1 Zn 0.93967(2) 0.02014(2) 0.26054(2)
N1 N 0.89342(14) 0.00630(14) 0.29988(12)
C1 C 0.90833(16) 0.01389(17) 0.29046(14)
H1 H 0.9113 0.0267 0.2934
N2 N 0.91962(12) 0.00514(13) 0.27717(12)
C2 C 0.91400(18) -0.01318(16) 0.27445(16)
C3 C 0.89825(18) -0.02318(17) 0.28367(16)
C4 C 0.88844(19) -0.01317(19) 0.29683(19)
N3 N 0.89588(15) -0.04166(12) 0.27621(13)
C5 C 0.91084(17) -0.04169(18) 0.26358(17)
H5 H 0.9136 -0.0527 0.2563
N4 N 0.92179(14) -0.02558(14) 0.26165(13)
N5 N 0.87346(15) -0.02191(12) 0.30668(13)
H10A H 0.8705 -0.0338 0.3043
H10B H 0.8671 -0.0155 0.3152
C11 C 0.9455(2) 0.0527(2) 0.2791(2)
O11A O 0.95520(17) 0.03896(14) 0.27316(16)
O11B O 0.92792(16) 0.05419(15) 0.27756(17)
C12 C 0.9561(2) 0.06824(18) 0.29023(17)
C13 C 0.94656(19) 0.08283(18) 0.2988(2)
H13 H 0.9331 0.0832 0.2982
C14 C 0.95649(18) 0.09767(19) 0.3088(2)
H14 H 0.9495 0.1078 0.3144
C15 C 0.97581(19) 0.09733(18) 0.3105(2)
C16 C 0.9848(2) 0.0819(2) 0.3029(3)
H16 H 0.9980 0.0803 0.3053
C17 C 0.9754(2) 0.0679(2) 0.2916(3)
H17 H 0.9825 0.0584 0.2851
C21 C 1.0178(2) 0.1570(2) 0.3512(2)
O21A O 1.00832(11) 0.16768(10) 0.36193(12)
O21B O 1.03525(14) 0.15833(18) 0.3504(2)
C22 C 1.00668(19) 0.14157(17) 0.34038(17)
C23 C 0.98774(18) 0.14123(18) 0.3401(2)
H23 H 0.9808 0.1508 0.3466
C24 C 0.97766(19) 0.1265(2) 0.3302(2)
H24 H 0.9642 0.1268 0.3300
C25 C 0.9866(2) 0.11214(18) 0.3210(2)
C26 C 1.0060(2) 0.1131(2) 0.3204(3)
H26 H 1.0130 0.1044 0.3129
C27 C 1.0156(2) 0.1272(2) 0.3309(3)
H27 H 1.0291 0.1267 0.3315
Zn1 Zn 1.01054(2) 0.27014(2) 0.31033(2)
Zn1 Zn 0.93967(2) -0.02014(2) 0.23946(2)
Zn2 Zn 0.87578(2) -0.063116(18) 0.275396(18)
Zn2 Zn 1.025396(18) 0.186884(18) 0.37422(2)
N3 N 0.95834(12) 0.22379(13) 0.39588(15)
N4 N 1.01165(13) 0.22442(14) 0.32821(14)
N4 N 0.92179(14) 0.02558(14) 0.23835(13)
O1 O 0.95618(13) 0.0000 0.2500
O21A O 0.86193(12) 0.00832(11) 0.33232(10)
Zn1 Zn 0.48946(2) 0.27014(2) 0.68967(2)
N1 N 0.45012(12) 0.25630(14) 0.64342(14)
C1 C 0.45954(14) 0.26389(17) 0.65833(16)
H1 H 0.4566 0.2767 0.6613
N2 N 0.47283(12) 0.25514(13) 0.66962(12)
C2 C 0.47555(16) 0.23682(16) 0.66400(18)
C3 C 0.46633(16) 0.22682(17) 0.64825(18)
C4 C 0.45317(19) 0.23683(19) 0.63844(19)
C5 C 0.48642(17) 0.20831(18) 0.66084(17)
H5 H 0.4937 0.1973 0.6636
N4 N 0.48835(13) 0.22442(14) 0.67179(14)
N5 N 0.44332(13) 0.22809(12) 0.62346(15)
H10A H 0.4457 0.2162 0.6205
H10B H 0.4348 0.2345 0.6171
O1 O 0.5000 0.2500 0.70618(13)
C11 C 0.4709(2) 0.3027(2) 0.6955(2)
O11A O 0.47684(16) 0.28896(14) 0.70520(17)
O11B O 0.47244(17) 0.30419(15) 0.67792(16)
C12 C 0.45977(17) 0.31824(18) 0.7061(2)
C13 C 0.4512(2) 0.33283(18) 0.69656(19)
H13 H 0.4518 0.3332 0.6831
C14 C 0.4412(2) 0.34767(19) 0.70649(18)
H14 H 0.4356 0.3578 0.6995
C15 C 0.4395(2) 0.34733(18) 0.72581(19)
C16 C 0.4471(3) 0.3319(2) 0.7348(2)
H16 H 0.4447 0.3303 0.7480
C17 C 0.4584(3) 0.3179(2) 0.7254(2)
H17 H 0.4649 0.3084 0.7325
C21 C 0.3988(2) 0.4070(2) 0.7678(2)
O21B O 0.3996(2) 0.40833(18) 0.78525(14)
C22 C 0.40962(17) 0.39157(17) 0.75668(19)
C23 C 0.4099(2) 0.39123(18) 0.73774(18)
H23 H 0.4034 0.4008 0.7308
C24 C 0.4198(2) 0.3765(2) 0.72766(19)
H24 H 0.4200 0.3768 0.7142
C25 C 0.4290(2) 0.36214(18) 0.7366(2)
C26 C 0.4296(3) 0.3631(2) 0.7560(2)
H26 H 0.4371 0.3544 0.7630
C27 C 0.4191(3) 0.3772(2) 0.7656(2)
H27 H 0.4185 0.3767 0.7791
C31 C 0.4252(2) 0.3048(2) 0.6457(2)
O31A O 0.43832(11) 0.30126(11) 0.63372(14)
O31B O 0.41450(14) 0.29228(12) 0.65138(18)
C32 C 0.42114(16) 0.32589(17) 0.65106(15)
C33 C 0.40605(19) 0.33087(18) 0.66246(18)
H33 H 0.3982 0.3212 0.6676
C34 C 0.40208(19) 0.35018(18) 0.6666(2)
H34A H 0.3915 0.3534 0.6743
C35 C 0.41367(18) 0.36418(16) 0.65948(17)
C36 C 0.42890(17) 0.35932(18) 0.64821(17)
H36A H 0.4369 0.3690 0.6434
C37 C 0.43270(17) 0.34000(16) 0.64380(18)
H37A H 0.4431 0.3368 0.6359
C31 C 0.3957(2) 0.4452(2) 0.6752(2)
O31A O 0.38372(14) 0.44874(11) 0.68832(11)
O31B O 0.40138(18) 0.45772(12) 0.66450(14)
C32 C 0.40106(15) 0.42411(17) 0.67114(16)
C33 C 0.41246(18) 0.41913(18) 0.65605(19)
H33 H 0.4176 0.4288 0.6482
C34 C 0.4166(2) 0.39982(18) 0.65208(19)
H34A H 0.4243 0.3966 0.6415
C35 C 0.40948(17) 0.38582(16) 0.66367(18)
C36 C 0.39821(17) 0.39068(18) 0.67890(17)
H36A H 0.3934 0.3810 0.6869
C37 C 0.39380(18) 0.41000(16) 0.68270(17)
H37A H 0.3859 0.4132 0.6931
Zn1 Zn 0.43967(2) 0.47986(2) 0.73946(2)
N1 N 0.39342(14) 0.49370(14) 0.70012(12)
C1 C 0.40833(16) 0.48611(17) 0.70954(14)
H1 H 0.4113 0.4733 0.7066
N2 N 0.41962(12) 0.49486(13) 0.72283(12)
C2 C 0.41400(18) 0.51318(16) 0.72555(16)
C3 C 0.39825(18) 0.52318(17) 0.71633(16)
C4 C 0.38844(19) 0.51317(19) 0.70317(19)
C5 C 0.41084(17) 0.54169(18) 0.73642(17)
H5 H 0.4136 0.5527 0.7437
N4 N 0.42179(14) 0.52558(14) 0.73835(13)
N5 N 0.37346(15) 0.52191(12) 0.69332(13)
H10A H 0.3705 0.5338 0.6957
H10B H 0.3671 0.5155 0.6848
C11 C 0.4455(2) 0.4473(2) 0.7209(2)
O11A O 0.45520(17) 0.46104(14) 0.72684(16)
O11B O 0.42792(16) 0.44581(15) 0.72244(17)
C12 C 0.4561(2) 0.43176(18) 0.70977(17)
C13 C 0.44656(19) 0.41717(18) 0.7012(2)
H13 H 0.4331 0.4168 0.7018
C14 C 0.45649(18) 0.40233(19) 0.6912(2)
H14 H 0.4495 0.3922 0.6856
C15 C 0.47581(19) 0.40267(18) 0.6895(2)
C16 C 0.4848(2) 0.4181(2) 0.6971(3)
H16 H 0.4980 0.4197 0.6947
C17 C 0.4754(2) 0.4321(2) 0.7084(3)
H17 H 0.4825 0.4416 0.7149
C21 C 0.5178(2) 0.3430(2) 0.6488(2)
O21B O 0.53525(14) 0.34167(18) 0.6496(2)
C22 C 0.50668(19) 0.35843(17) 0.65962(17)
C23 C 0.48774(18) 0.35877(18) 0.6599(2)
H23 H 0.4808 0.3492 0.6534
C24 C 0.47766(19) 0.3735(2) 0.6698(2)
H24 H 0.4642 0.3732 0.6700
C25 C 0.4866(2) 0.38786(18) 0.6790(2)
C26 C 0.5060(2) 0.3869(2) 0.6796(3)
H26 H 0.5130 0.3956 0.6871
C27 C 0.5156(2) 0.3728(2) 0.6691(3)
H27 H 0.5291 0.3733 0.6685
Zn1 Zn 0.51054(2) 0.22986(2) 0.68967(2)
Zn1 Zn 0.43967(2) 0.52014(2) 0.76054(2)
N4 N 0.51165(13) 0.27558(14) 0.67179(14)
N4 N 0.42179(14) 0.47442(14) 0.76165(13)
O1 O 0.45618(13) 0.5000 0.7500
Zn1 Zn 0.01054(2) 0.72986(2) 0.18967(2)
N1 N 0.04988(12) 0.74370(14) 0.14342(14)
C1 C 0.04046(14) 0.73611(17) 0.15833(16)
H1 H 0.0434 0.7233 0.1613
N2 N 0.02717(12) 0.74486(13) 0.16962(12)
C2 C 0.02445(16) 0.76318(16) 0.16400(18)
C3 C 0.03367(16) 0.77318(17) 0.14825(18)
C4 C 0.04683(19) 0.76317(19) 0.13844(19)
C5 C 0.01358(17) 0.79169(18) 0.16084(17)
H5 H 0.0063 0.8027 0.1636
N4 N 0.01165(13) 0.77558(14) 0.17179(14)
N5 N 0.05668(13) 0.77191(12) 0.12346(15)
H10A H 0.0543 0.7838 0.1205
H10B H 0.0652 0.7655 0.1171
O1 O 0.0000 0.7500 0.20618(13)
C11 C 0.0291(2) 0.6973(2) 0.1955(2)
O11A O 0.02316(16) 0.71104(14) 0.20520(17)
O11B O 0.02756(17) 0.69581(15) 0.17792(16)
C12 C 0.04023(17) 0.68176(18) 0.2061(2)
C13 C 0.0488(2) 0.66717(18) 0.19656(19)
H13 H 0.0482 0.6668 0.1831
C14 C 0.0588(2) 0.65233(19) 0.20649(18)
H14 H 0.0644 0.6422 0.1995
C15 C 0.0605(2) 0.65267(18) 0.22581(19)
C16 C 0.0529(3) 0.6681(2) 0.2348(2)
H16 H 0.0553 0.6697 0.2480
C17 C 0.0416(3) 0.6821(2) 0.2254(2)
H17 H 0.0351 0.6916 0.2325
C21 C 0.1012(2) 0.5930(2) 0.2678(2)
O21B O 0.1004(2) 0.59167(18) 0.28525(14)
C22 C 0.09038(17) 0.60843(17) 0.25668(19)
C23 C 0.0901(2) 0.60877(18) 0.23774(18)
H23 H 0.0966 0.5992 0.2308
C24 C 0.0802(2) 0.6235(2) 0.22766(19)
H24 H 0.0800 0.6232 0.2142
C25 C 0.0710(2) 0.63786(18) 0.2366(2)
C26 C 0.0704(3) 0.6369(2) 0.2560(2)
H26 H 0.0629 0.6456 0.2630
C27 C 0.0809(3) 0.6228(2) 0.2656(2)
H27 H 0.0815 0.6233 0.2791
C31 C 0.0748(2) 0.6952(2) 0.1457(2)
O31A O 0.06168(11) 0.69874(11) 0.13372(14)
O31B O 0.08550(14) 0.70772(12) 0.15138(18)
C32 C 0.07886(16) 0.67411(17) 0.15106(15)
C33 C 0.09395(19) 0.66913(18) 0.16246(18)
H33 H 0.1018 0.6788 0.1676
C34 C 0.09792(19) 0.64982(18) 0.1666(2)
H34A H 0.1085 0.6466 0.1743
C35 C 0.08633(18) 0.63582(16) 0.15948(17)
C36 C 0.07110(17) 0.64068(18) 0.14821(17)
H36A H 0.0631 0.6310 0.1434
C37 C 0.06730(17) 0.66000(16) 0.14380(18)
H37A H 0.0569 0.6632 0.1359
C31 C 0.1043(2) 0.5548(2) 0.1752(2)
O31A O 0.11628(14) 0.55126(11) 0.18832(11)
O31B O 0.09862(18) 0.54228(12) 0.16450(14)
C32 C 0.09894(15) 0.57589(17) 0.17114(16)
C33 C 0.08754(18) 0.58087(18) 0.15605(19)
H33 H 0.0824 0.5712 0.1482
C34 C 0.0834(2) 0.60018(18) 0.15208(19)
H34A H 0.0757 0.6034 0.1415
C35 C 0.09052(17) 0.61418(16) 0.16367(18)
C36 C 0.10179(17) 0.60932(18) 0.17890(17)
H36A H 0.1066 0.6190 0.1869
C37 C 0.10620(18) 0.59000(16) 0.18270(17)
H37A H 0.1141 0.5868 0.1931
Zn1 Zn 0.06033(2) 0.52014(2) 0.23946(2)
N1 N 0.10658(14) 0.50630(14) 0.20012(12)
C1 C 0.09167(16) 0.51389(17) 0.20954(14)
H1 H 0.0887 0.5267 0.2066
N2 N 0.08038(12) 0.50514(13) 0.22283(12)
C2 C 0.08600(18) 0.48682(16) 0.22555(16)
C3 C 0.10175(18) 0.47682(17) 0.21633(16)
C4 C 0.11156(19) 0.48683(19) 0.20317(19)
C5 C 0.08916(17) 0.45831(18) 0.23642(17)
H5 H 0.0864 0.4473 0.2437
N4 N 0.07821(14) 0.47442(14) 0.23835(13)
N5 N 0.12654(15) 0.47809(12) 0.19332(13)
H10A H 0.1295 0.4662 0.1957
H10B H 0.1329 0.4845 0.1848
C11 C 0.0545(2) 0.5527(2) 0.2209(2)
O11A O 0.04480(17) 0.53896(14) 0.22684(16)
O11B O 0.07208(16) 0.55419(15) 0.22244(17)
C12 C 0.0439(2) 0.56824(18) 0.20977(17)
C13 C 0.05344(19) 0.58283(18) 0.2012(2)
H13 H 0.0669 0.5832 0.2018
C14 C 0.04351(18) 0.59767(19) 0.1912(2)
H14 H 0.0505 0.6078 0.1856
C15 C 0.02419(19) 0.59733(18) 0.1895(2)
C16 C 0.0152(2) 0.5819(2) 0.1971(3)
H16 H 0.0020 0.5803 0.1947
C17 C 0.0246(2) 0.5679(2) 0.2084(3)
H17 H 0.0175 0.5584 0.2149
C21 C -0.0178(2) 0.6570(2) 0.1488(2)
O21A O -0.00832(11) 0.66768(10) 0.13807(12)
O21B O -0.03525(14) 0.65833(18) 0.1496(2)
C22 C -0.00668(19) 0.64157(17) 0.15962(17)
C23 C 0.01226(18) 0.64123(18) 0.1599(2)
H23 H 0.0192 0.6508 0.1534
C24 C 0.02234(19) 0.6265(2) 0.1698(2)
H24 H 0.0358 0.6268 0.1700
C25 C 0.0134(2) 0.61214(18) 0.1790(2)
C26 C -0.0060(2) 0.6131(2) 0.1796(3)
H26 H -0.0130 0.6044 0.1871
C27 C -0.0156(2) 0.6272(2) 0.1691(3)
H27 H -0.0291 0.6267 0.1685
Zn1 Zn -0.01054(2) 0.77014(2) 0.18967(2)
Zn1 Zn 0.06033(2) 0.47986(2) 0.26054(2)
Zn2 Zn -0.025396(18) 0.686884(18) 0.12578(2)
N3 N 0.04166(12) 0.72379(13) 0.10412(15)
N4 N -0.01165(13) 0.72442(14) 0.17179(14)
N4 N 0.07821(14) 0.52558(14) 0.26165(13)
O1 O 0.04382(13) 0.5000 0.2500
Zn1 Zn 0.81033(2) 0.51054(2) 0.77014(2)
N1 N 0.85658(14) 0.54988(12) 0.75630(14)
C1 C 0.84167(16) 0.54046(14) 0.76389(17)
H1 H 0.8387 0.5434 0.7767
N2 N 0.83038(12) 0.52717(12) 0.75514(13)
C2 C 0.83600(18) 0.52445(16) 0.73682(16)
C3 C 0.85175(18) 0.53367(16) 0.72682(17)
C4 C 0.86156(19) 0.54683(19) 0.73683(19)
C5 C 0.83916(17) 0.51358(17) 0.70831(18)
H5 H 0.8364 0.5063 0.6973
N4 N 0.82821(14) 0.51165(13) 0.72442(14)
N5 N 0.87654(15) 0.55668(13) 0.72809(12)
H10A H 0.8795 0.5543 0.7162
H10B H 0.8829 0.5652 0.7345
O1 O 0.79382(13) 0.5000 0.7500
C11 C 0.8045(2) 0.5291(2) 0.8027(2)
O11A O 0.79480(17) 0.52316(16) 0.78896(14)
O11B O 0.82208(16) 0.52756(17) 0.80419(15)
C12 C 0.7939(2) 0.54023(17) 0.81824(18)
C13 C 0.80344(19) 0.5488(2) 0.83283(18)
H13 H 0.8169 0.5482 0.8332
C14 C 0.79351(18) 0.5588(2) 0.84767(19)
H14 H 0.8005 0.5644 0.8578
C15 C 0.77419(19) 0.5605(2) 0.84733(18)
C16 C 0.7652(2) 0.5529(3) 0.8319(2)
H16 H 0.7520 0.5553 0.8303
C17 C 0.7746(2) 0.5416(3) 0.8179(2)
H17 H 0.7675 0.5351 0.8084
C21 C 0.7322(2) 0.6012(2) 0.9070(2)
O21B O 0.71475(14) 0.6004(2) 0.90833(18)
C22 C 0.74332(19) 0.59038(17) 0.89157(17)
C23 C 0.76226(18) 0.5901(2) 0.89123(18)
H23 H 0.7692 0.5966 0.9008
C24 C 0.77234(19) 0.5802(2) 0.8765(2)
H24 H 0.7858 0.5800 0.8768
C25 C 0.7634(2) 0.5710(2) 0.86214(18)
C26 C 0.7440(2) 0.5704(3) 0.8631(2)
H26 H 0.7370 0.5629 0.8544
C27 C 0.7344(2) 0.5809(3) 0.8772(2)
H27 H 0.7209 0.5815 0.8767
C31 C 0.8543(2) 0.5748(2) 0.8048(2)
O31A O 0.86628(14) 0.56168(11) 0.80126(11)
O31B O 0.84862(18) 0.58550(14) 0.79228(12)
C32 C 0.84894(15) 0.57886(16) 0.82589(17)
C33 C 0.83754(18) 0.59395(19) 0.83087(18)
H33 H 0.8324 0.6018 0.8212
C34 C 0.8334(2) 0.59792(19) 0.85018(18)
H34A H 0.8257 0.6085 0.8534
C35 C 0.84052(17) 0.58633(18) 0.86418(16)
C36 C 0.85179(17) 0.57110(17) 0.85932(18)
H36A H 0.8566 0.5631 0.8690
C37 C 0.85620(18) 0.56730(17) 0.84000(16)
H37A H 0.8641 0.5569 0.8368
C31 C 0.8248(2) 0.6043(2) 0.9452(2)
O31A O 0.81168(11) 0.61628(14) 0.94874(11)
O31B O 0.83550(14) 0.59862(18) 0.95772(12)
C32 C 0.82886(16) 0.59894(15) 0.92411(17)
C33 C 0.84395(19) 0.58754(18) 0.91913(18)
H33 H 0.8518 0.5824 0.9288
C34 C 0.84792(19) 0.5834(2) 0.89982(18)
H34A H 0.8585 0.5757 0.8966
C35 C 0.83633(18) 0.59052(17) 0.88582(16)
C36 C 0.82110(17) 0.60179(17) 0.89068(18)
H36A H 0.8131 0.6066 0.8810
C37 C 0.81730(17) 0.60620(18) 0.91000(16)
H37A H 0.8069 0.6141 0.9132
Zn1 Zn 0.76054(2) 0.56033(2) 0.97986(2)
N1 N 0.79988(12) 0.60658(14) 0.99370(14)
C1 C 0.79046(14) 0.59167(16) 0.98611(17)
H1 H 0.7934 0.5887 0.9733
N2 N 0.77717(12) 0.58038(12) 0.99486(13)
C2 C 0.77445(16) 0.58600(18) 1.01318(16)
C3 C 0.78367(16) 0.60175(18) 1.02318(17)
C4 C 0.79683(19) 0.61156(19) 1.01317(19)
N3 N 0.77621(13) 0.60412(15) 1.04166(12)
C5 C 0.76358(17) 0.58916(17) 1.04169(18)
H5 H 0.7563 0.5864 1.0527
N4 N 0.76165(13) 0.57821(14) 1.02558(14)
N5 N 0.80668(13) 0.62654(15) 1.02191(12)
H10A H 0.8043 0.6295 1.0338
H10B H 0.8152 0.6329 1.0155
C11 C 0.7791(2) 0.5545(2) 0.9473(2)
O11A O 0.77316(16) 0.54480(17) 0.96104(14)
O11B O 0.77756(17) 0.57208(16) 0.94581(15)
C12 C 0.79023(17) 0.5439(2) 0.93176(18)
C13 C 0.7988(2) 0.55344(19) 0.91717(18)
H13 H 0.7982 0.5669 0.9168
C14 C 0.8088(2) 0.54351(18) 0.90233(19)
H14 H 0.8144 0.5505 0.8922
C15 C 0.8105(2) 0.52419(19) 0.90267(18)
C16 C 0.8029(3) 0.5152(2) 0.9181(2)
H16 H 0.8053 0.5020 0.9197
C17 C 0.7916(3) 0.5246(2) 0.9321(2)
H17 H 0.7851 0.5175 0.9416
C21 C 0.8512(2) 0.4822(2) 0.8430(2)
O21B O 0.8504(2) 0.46475(14) 0.84167(18)
C22 C 0.84038(17) 0.49332(19) 0.85843(17)
C23 C 0.8401(2) 0.51226(18) 0.85877(18)
H23 H 0.8466 0.5192 0.8492
C24 C 0.8302(2) 0.52234(19) 0.8735(2)
H24 H 0.8300 0.5358 0.8732
C25 C 0.8210(2) 0.5134(2) 0.88786(18)
C26 C 0.8204(3) 0.4940(2) 0.8869(2)
H26 H 0.8129 0.4870 0.8956
C27 C 0.8309(3) 0.4844(2) 0.8728(2)
H27 H 0.8315 0.4709 0.8733
Zn1 Zn 0.81033(2) 0.48946(2) 0.72986(2)
Zn1 Zn 0.73946(2) 0.56033(2) 1.02014(2)
Zn2 Zn 0.775396(18) 0.62422(2) 1.063116(18)
N4 N 0.82821(14) 0.48835(13) 0.77558(14)
N4 N 0.73835(13) 0.57821(14) 0.97442(14)
O1 O 0.7500 0.54382(13) 1.0000
O21A O 0.83232(10) 0.63807(12) 0.99168(11)
Zn1 Zn 0.31033(2) 0.98946(2) 0.22986(2)
N1 N 0.35658(14) 0.95012(12) 0.24370(14)
C1 C 0.34167(16) 0.95954(14) 0.23611(17)
H1 H 0.3387 0.9566 0.2233
N2 N 0.33038(12) 0.97283(12) 0.24486(13)
C2 C 0.33600(18) 0.97555(16) 0.26318(16)
C3 C 0.35175(18) 0.96633(16) 0.27318(17)
C4 C 0.36156(19) 0.95317(19) 0.26317(19)
C5 C 0.33916(17) 0.98642(17) 0.29169(18)
H5 H 0.3364 0.9937 0.3027
N4 N 0.32821(14) 0.98835(13) 0.27558(14)
N5 N 0.37654(15) 0.94332(13) 0.27191(12)
H10A H 0.3795 0.9457 0.2838
H10B H 0.3829 0.9348 0.2655
O1 O 0.29382(13) 1.0000 0.2500
C11 C 0.3045(2) 0.9709(2) 0.1973(2)
O11A O 0.29480(17) 0.97684(16) 0.21104(14)
O11B O 0.32208(16) 0.97244(17) 0.19581(15)
C12 C 0.2939(2) 0.95977(17) 0.18176(18)
C13 C 0.30344(19) 0.9512(2) 0.16717(18)
H13 H 0.3169 0.9518 0.1668
C14 C 0.29351(18) 0.9412(2) 0.15233(19)
H14 H 0.3005 0.9356 0.1422
C15 C 0.27419(19) 0.9395(2) 0.15267(18)
C16 C 0.2652(2) 0.9471(3) 0.1681(2)
H16 H 0.2520 0.9447 0.1697
C17 C 0.2746(2) 0.9584(3) 0.1821(2)
H17 H 0.2675 0.9649 0.1916
C21 C 0.2322(2) 0.8988(2) 0.0930(2)
O21B O 0.21475(14) 0.8996(2) 0.09167(18)
C22 C 0.24332(19) 0.90962(17) 0.10843(17)
C23 C 0.26226(18) 0.9099(2) 0.10877(18)
H23 H 0.2692 0.9034 0.0992
C24 C 0.27234(19) 0.9198(2) 0.1235(2)
H24 H 0.2858 0.9200 0.1232
C25 C 0.2634(2) 0.9290(2) 0.13786(18)
C26 C 0.2440(2) 0.9296(3) 0.1369(2)
H26 H 0.2370 0.9371 0.1456
C27 C 0.2344(2) 0.9191(3) 0.1228(2)
H27 H 0.2209 0.9185 0.1233
C31 C 0.3543(2) 0.9252(2) 0.1952(2)
O31A O 0.36628(14) 0.93832(11) 0.19874(11)
O31B O 0.34862(18) 0.91450(14) 0.20772(12)
C32 C 0.34894(15) 0.92114(16) 0.17411(17)
C33 C 0.33754(18) 0.90605(19) 0.16913(18)
H33 H 0.3324 0.8982 0.1788
C34 C 0.3334(2) 0.90208(19) 0.14982(18)
H34A H 0.3257 0.8915 0.1466
C35 C 0.34052(17) 0.91367(18) 0.13582(16)
C36 C 0.35179(17) 0.92890(17) 0.14068(18)
H36A H 0.3566 0.9369 0.1310
C37 C 0.35620(18) 0.93270(17) 0.16000(16)
H37A H 0.3641 0.9431 0.1632
C31 C 0.3248(2) 0.8957(2) 0.0548(2)
O31A O 0.31168(11) 0.88372(14) 0.05126(11)
O31B O 0.33550(14) 0.90138(18) 0.04228(12)
C32 C 0.32886(16) 0.90106(15) 0.07589(17)
C33 C 0.34395(19) 0.91246(18) 0.08087(18)
H33 H 0.3518 0.9176 0.0712
C34 C 0.34792(19) 0.9166(2) 0.10018(18)
H34A H 0.3585 0.9243 0.1034
C35 C 0.33633(18) 0.90948(17) 0.11418(16)
C36 C 0.32110(17) 0.89821(17) 0.10932(18)
H36A H 0.3131 0.8934 0.1190
C37 C 0.31730(17) 0.89380(18) 0.09000(16)
H37A H 0.3069 0.8859 0.0868
Zn1 Zn 0.26054(2) 0.93967(2) 0.02014(2)
N1 N 0.29988(12) 0.89342(14) 0.00630(14)
C1 C 0.29046(14) 0.90833(16) 0.01389(17)
H1 H 0.2934 0.9113 0.0267
N2 N 0.27717(12) 0.91962(12) 0.00514(13)
C2 C 0.27445(16) 0.91400(18) -0.01318(16)
C3 C 0.28367(16) 0.89825(18) -0.02318(17)
C4 C 0.29683(19) 0.88844(19) -0.01317(19)
N3 N 0.27621(13) 0.89588(15) -0.04166(12)
C5 C 0.26358(17) 0.91084(17) -0.04169(18)
H5 H 0.2563 0.9136 -0.0527
N4 N 0.26165(13) 0.92179(14) -0.02558(14)
N5 N 0.30668(13) 0.87346(15) -0.02191(12)
H10A H 0.3043 0.8705 -0.0338
H10B H 0.3152 0.8671 -0.0155
C11 C 0.2791(2) 0.9455(2) 0.0527(2)
O11A O 0.27316(16) 0.95520(17) 0.03896(14)
O11B O 0.27756(17) 0.92792(16) 0.05419(15)
C12 C 0.29023(17) 0.9561(2) 0.06824(18)
C13 C 0.2988(2) 0.94656(19) 0.08283(18)
H13 H 0.2982 0.9331 0.0832
C14 C 0.3088(2) 0.95649(18) 0.09767(19)
H14 H 0.3144 0.9495 0.1078
C15 C 0.3105(2) 0.97581(19) 0.09733(18)
C16 C 0.3029(3) 0.9848(2) 0.0819(2)
H16 H 0.3053 0.9980 0.0803
C17 C 0.2916(3) 0.9754(2) 0.0679(2)
H17 H 0.2851 0.9825 0.0584
C21 C 0.3512(2) 1.0178(2) 0.1570(2)
O21A O 0.36193(12) 1.00832(11) 0.16768(10)
O21B O 0.3504(2) 1.03525(14) 0.15833(18)
C22 C 0.34038(17) 1.00668(19) 0.14157(17)
C23 C 0.3401(2) 0.98774(18) 0.14123(18)
H23 H 0.3466 0.9808 0.1508
C24 C 0.3302(2) 0.97766(19) 0.1265(2)
H24 H 0.3300 0.9642 0.1268
C25 C 0.3210(2) 0.9866(2) 0.11214(18)
C26 C 0.3204(3) 1.0060(2) 0.1131(2)
H26 H 0.3129 1.0130 0.1044
C27 C 0.3309(3) 1.0156(2) 0.1272(2)
H27 H 0.3315 1.0291 0.1267
Zn1 Zn 0.31033(2) 1.01054(2) 0.27014(2)
Zn1 Zn 0.23946(2) 0.93967(2) -0.02014(2)
Zn2 Zn 0.275396(18) 0.87578(2) -0.063116(18)
Zn2 Zn 0.37422(2) 1.025396(18) 0.186884(18)
N3 N 0.39588(15) 0.95834(12) 0.22379(13)
N4 N 0.32821(14) 1.01165(13) 0.22442(14)
N4 N 0.23835(13) 0.92179(14) 0.02558(14)
O1 O 0.2500 0.95618(13) 0.0000
O21A O 0.33232(10) 0.86193(12) 0.00832(11)
Zn1 Zn 0.68967(2) 0.48946(2) 0.27014(2)
N1 N 0.64342(14) 0.45012(12) 0.25630(14)
C1 C 0.65833(16) 0.45954(14) 0.26389(17)
H1 H 0.6613 0.4566 0.2767
N2 N 0.66962(12) 0.47283(12) 0.25514(13)
C2 C 0.66400(18) 0.47555(16) 0.23682(16)
C3 C 0.64825(18) 0.46633(16) 0.22682(17)
C4 C 0.63844(19) 0.45317(19) 0.23683(19)
C5 C 0.66084(17) 0.48642(17) 0.20831(18)
H5 H 0.6636 0.4937 0.1973
N4 N 0.67179(14) 0.48835(13) 0.22442(14)
N5 N 0.62346(15) 0.44332(13) 0.22809(12)
H10A H 0.6205 0.4457 0.2162
H10B H 0.6171 0.4348 0.2345
O1 O 0.70618(13) 0.5000 0.2500
C11 C 0.6955(2) 0.4709(2) 0.3027(2)
O11A O 0.70520(17) 0.47684(16) 0.28896(14)
O11B O 0.67792(16) 0.47244(17) 0.30419(15)
C12 C 0.7061(2) 0.45977(17) 0.31824(18)
C13 C 0.69656(19) 0.4512(2) 0.33283(18)
H13 H 0.6831 0.4518 0.3332
C14 C 0.70649(18) 0.4412(2) 0.34767(19)
H14 H 0.6995 0.4356 0.3578
C15 C 0.72581(19) 0.4395(2) 0.34733(18)
C16 C 0.7348(2) 0.4471(3) 0.3319(2)
H16 H 0.7480 0.4447 0.3303
C17 C 0.7254(2) 0.4584(3) 0.3179(2)
H17 H 0.7325 0.4649 0.3084
C21 C 0.7678(2) 0.3988(2) 0.4070(2)
O21B O 0.78525(14) 0.3996(2) 0.40833(18)
C22 C 0.75668(19) 0.40962(17) 0.39157(17)
C23 C 0.73774(18) 0.4099(2) 0.39123(18)
H23 H 0.7308 0.4034 0.4008
C24 C 0.72766(19) 0.4198(2) 0.3765(2)
H24 H 0.7142 0.4200 0.3768
C25 C 0.7366(2) 0.4290(2) 0.36214(18)
C26 C 0.7560(2) 0.4296(3) 0.3631(2)
H26 H 0.7630 0.4371 0.3544
C27 C 0.7656(2) 0.4191(3) 0.3772(2)
H27 H 0.7791 0.4185 0.3767
C31 C 0.6457(2) 0.4252(2) 0.3048(2)
O31A O 0.63372(14) 0.43832(11) 0.30126(11)
O31B O 0.65138(18) 0.41450(14) 0.29228(12)
C32 C 0.65106(15) 0.42114(16) 0.32589(17)
C33 C 0.66246(18) 0.40605(19) 0.33087(18)
H33 H 0.6676 0.3982 0.3212
C34 C 0.6666(2) 0.40208(19) 0.35018(18)
H34A H 0.6743 0.3915 0.3534
C35 C 0.65948(17) 0.41367(18) 0.36418(16)
C36 C 0.64821(17) 0.42890(17) 0.35932(18)
H36A H 0.6434 0.4369 0.3690
C37 C 0.64380(18) 0.43270(17) 0.34000(16)
H37A H 0.6359 0.4431 0.3368
C31 C 0.6752(2) 0.3957(2) 0.4452(2)
O31A O 0.68832(11) 0.38372(14) 0.44874(11)
O31B O 0.66450(14) 0.40138(18) 0.45772(12)
C32 C 0.67114(16) 0.40106(15) 0.42411(17)
C33 C 0.65605(19) 0.41246(18) 0.41913(18)
H33 H 0.6482 0.4176 0.4288
C34 C 0.65208(19) 0.4166(2) 0.39982(18)
H34A H 0.6415 0.4243 0.3966
C35 C 0.66367(18) 0.40948(17) 0.38582(16)
C36 C 0.67890(17) 0.39821(17) 0.39068(18)
H36A H 0.6869 0.3934 0.3810
C37 C 0.68270(17) 0.39380(18) 0.41000(16)
H37A H 0.6931 0.3859 0.4132
Zn1 Zn 0.73946(2) 0.43967(2) 0.47986(2)
N1 N 0.70012(12) 0.39342(14) 0.49370(14)
C1 C 0.70954(14) 0.40833(16) 0.48611(17)
H1 H 0.7066 0.4113 0.4733
N2 N 0.72283(12) 0.41962(12) 0.49486(13)
C2 C 0.72555(16) 0.41400(18) 0.51318(16)
C3 C 0.71633(16) 0.39825(18) 0.52318(17)
C4 C 0.70317(19) 0.38844(19) 0.51317(19)
C5 C 0.73642(17) 0.41084(17) 0.54169(18)
H5 H 0.7437 0.4136 0.5527
N4 N 0.73835(13) 0.42179(14) 0.52558(14)
N5 N 0.69332(13) 0.37346(15) 0.52191(12)
H10A H 0.6957 0.3705 0.5338
H10B H 0.6848 0.3671 0.5155
C11 C 0.7209(2) 0.4455(2) 0.4473(2)
O11A O 0.72684(16) 0.45520(17) 0.46104(14)
O11B O 0.72244(17) 0.42792(16) 0.44581(15)
C12 C 0.70977(17) 0.4561(2) 0.43176(18)
C13 C 0.7012(2) 0.44656(19) 0.41717(18)
H13 H 0.7018 0.4331 0.4168
C14 C 0.6912(2) 0.45649(18) 0.40233(19)
H14 H 0.6856 0.4495 0.3922
C15 C 0.6895(2) 0.47581(19) 0.40267(18)
C16 C 0.6971(3) 0.4848(2) 0.4181(2)
H16 H 0.6947 0.4980 0.4197
C17 C 0.7084(3) 0.4754(2) 0.4321(2)
H17 H 0.7149 0.4825 0.4416
C21 C 0.6488(2) 0.5178(2) 0.3430(2)
O21B O 0.6496(2) 0.53525(14) 0.34167(18)
C22 C 0.65962(17) 0.50668(19) 0.35843(17)
C23 C 0.6599(2) 0.48774(18) 0.35877(18)
H23 H 0.6534 0.4808 0.3492
C24 C 0.6698(2) 0.47766(19) 0.3735(2)
H24 H 0.6700 0.4642 0.3732
C25 C 0.6790(2) 0.4866(2) 0.38786(18)
C26 C 0.6796(3) 0.5060(2) 0.3869(2)
H26 H 0.6871 0.5130 0.3956
C27 C 0.6691(3) 0.5156(2) 0.3728(2)
H27 H 0.6685 0.5291 0.3733
Zn1 Zn 0.68967(2) 0.51054(2) 0.22986(2)
Zn1 Zn 0.76054(2) 0.43967(2) 0.52014(2)
N4 N 0.67179(14) 0.51165(13) 0.27558(14)
N4 N 0.76165(13) 0.42179(14) 0.47442(14)
O1 O 0.7500 0.45618(13) 0.5000
Zn1 Zn 0.18967(2) 0.01054(2) 0.72986(2)
N1 N 0.14342(14) 0.04988(12) 0.74370(14)
C1 C 0.15833(16) 0.04046(14) 0.73611(17)
H1 H 0.1613 0.0434 0.7233
N2 N 0.16962(12) 0.02717(12) 0.74486(13)
C2 C 0.16400(18) 0.02445(16) 0.76318(16)
C3 C 0.14825(18) 0.03367(16) 0.77318(17)
C4 C 0.13844(19) 0.04683(19) 0.76317(19)
C5 C 0.16084(17) 0.01358(17) 0.79169(18)
H5 H 0.1636 0.0063 0.8027
N4 N 0.17179(14) 0.01165(13) 0.77558(14)
N5 N 0.12346(15) 0.05668(13) 0.77191(12)
H10A H 0.1205 0.0543 0.7838
H10B H 0.1171 0.0652 0.7655
O1 O 0.20618(13) 0.0000 0.7500
C11 C 0.1955(2) 0.0291(2) 0.6973(2)
O11A O 0.20520(17) 0.02316(16) 0.71104(14)
O11B O 0.17792(16) 0.02756(17) 0.69581(15)
C12 C 0.2061(2) 0.04023(17) 0.68176(18)
C13 C 0.19656(19) 0.0488(2) 0.66717(18)
H13 H 0.1831 0.0482 0.6668
C14 C 0.20649(18) 0.0588(2) 0.65233(19)
H14 H 0.1995 0.0644 0.6422
C15 C 0.22581(19) 0.0605(2) 0.65267(18)
C16 C 0.2348(2) 0.0529(3) 0.6681(2)
H16 H 0.2480 0.0553 0.6697
C17 C 0.2254(2) 0.0416(3) 0.6821(2)
H17 H 0.2325 0.0351 0.6916
C21 C 0.2678(2) 0.1012(2) 0.5930(2)
O21B O 0.28525(14) 0.1004(2) 0.59167(18)
C22 C 0.25668(19) 0.09038(17) 0.60843(17)
C23 C 0.23774(18) 0.0901(2) 0.60877(18)
H23 H 0.2308 0.0966 0.5992
C24 C 0.22766(19) 0.0802(2) 0.6235(2)
H24 H 0.2142 0.0800 0.6232
C25 C 0.2366(2) 0.0710(2) 0.63786(18)
C26 C 0.2560(2) 0.0704(3) 0.6369(2)
H26 H 0.2630 0.0629 0.6456
C27 C 0.2656(2) 0.0809(3) 0.6228(2)
H27 H 0.2791 0.0815 0.6233
C31 C 0.1457(2) 0.0748(2) 0.6952(2)
O31A O 0.13372(14) 0.06168(11) 0.69874(11)
O31B O 0.15138(18) 0.08550(14) 0.70772(12)
C32 C 0.15106(15) 0.07886(16) 0.67411(17)
C33 C 0.16246(18) 0.09395(19) 0.66913(18)
H33 H 0.1676 0.1018 0.6788
C34 C 0.1666(2) 0.09792(19) 0.64982(18)
H34A H 0.1743 0.1085 0.6466
C35 C 0.15948(17) 0.08633(18) 0.63582(16)
C36 C 0.14821(17) 0.07110(17) 0.64068(18)
H36A H 0.1434 0.0631 0.6310
C37 C 0.14380(18) 0.06730(17) 0.66000(16)
H37A H 0.1359 0.0569 0.6632
C31 C 0.1752(2) 0.1043(2) 0.5548(2)
O31A O 0.18832(11) 0.11628(14) 0.55126(11)
O31B O 0.16450(14) 0.09862(18) 0.54228(12)
C32 C 0.17114(16) 0.09894(15) 0.57589(17)
C33 C 0.15605(19) 0.08754(18) 0.58087(18)
H33 H 0.1482 0.0824 0.5712
C34 C 0.15208(19) 0.0834(2) 0.60018(18)
H34A H 0.1415 0.0757 0.6034
C35 C 0.16367(18) 0.09052(17) 0.61418(16)
C36 C 0.17890(17) 0.10179(17) 0.60932(18)
H36A H 0.1869 0.1066 0.6190
C37 C 0.18270(17) 0.10620(18) 0.59000(16)
H37A H 0.1931 0.1141 0.5868
Zn1 Zn 0.23946(2) 0.06033(2) 0.52014(2)
N1 N 0.20012(12) 0.10658(14) 0.50630(14)
C1 C 0.20954(14) 0.09167(16) 0.51389(17)
H1 H 0.2066 0.0887 0.5267
N2 N 0.22283(12) 0.08038(12) 0.50514(13)
C2 C 0.22555(16) 0.08600(18) 0.48682(16)
C3 C 0.21633(16) 0.10175(18) 0.47682(17)
C4 C 0.20317(19) 0.11156(19) 0.48683(19)
C5 C 0.23642(17) 0.08916(17) 0.45831(18)
H5 H 0.2437 0.0864 0.4473
N4 N 0.23835(13) 0.07821(14) 0.47442(14)
N5 N 0.19332(13) 0.12654(15) 0.47809(12)
H10A H 0.1957 0.1295 0.4662
H10B H 0.1848 0.1329 0.4845
C11 C 0.2209(2) 0.0545(2) 0.5527(2)
O11A O 0.22684(16) 0.04480(17) 0.53896(14)
O11B O 0.22244(17) 0.07208(16) 0.55419(15)
C12 C 0.20977(17) 0.0439(2) 0.56824(18)
C13 C 0.2012(2) 0.05344(19) 0.58283(18)
H13 H 0.2018 0.0669 0.5832
C14 C 0.1912(2) 0.04351(18) 0.59767(19)
H14 H 0.1856 0.0505 0.6078
C15 C 0.1895(2) 0.02419(19) 0.59733(18)
C16 C 0.1971(3) 0.0152(2) 0.5819(2)
H16 H 0.1947 0.0020 0.5803
C17 C 0.2084(3) 0.0246(2) 0.5679(2)
H17 H 0.2149 0.0175 0.5584
C21 C 0.1488(2) -0.0178(2) 0.6570(2)
O21A O 0.13807(12) -0.00832(11) 0.66768(10)
O21B O 0.1496(2) -0.03525(14) 0.65833(18)
C22 C 0.15962(17) -0.00668(19) 0.64157(17)
C23 C 0.1599(2) 0.01226(18) 0.64123(18)
H23 H 0.1534 0.0192 0.6508
C24 C 0.1698(2) 0.02234(19) 0.6265(2)
H24 H 0.1700 0.0358 0.6268
C25 C 0.1790(2) 0.0134(2) 0.61214(18)
C26 C 0.1796(3) -0.0060(2) 0.6131(2)
H26 H 0.1871 -0.0130 0.6044
C27 C 0.1691(3) -0.0156(2) 0.6272(2)
H27 H 0.1685 -0.0291 0.6267
Zn1 Zn 0.18967(2) -0.01054(2) 0.77014(2)
Zn1 Zn 0.26054(2) 0.06033(2) 0.47986(2)
Zn2 Zn 0.12578(2) -0.025396(18) 0.686884(18)
N3 N 0.10412(15) 0.04166(12) 0.72379(13)
N4 N 0.17179(14) -0.01165(13) 0.72442(14)
N4 N 0.26165(13) 0.07821(14) 0.52558(14)
O1 O 0.2500 0.04382(13) 0.5000
Zn1 Zn 0.77014(2) 0.81033(2) 0.51054(2)
N1 N 0.75630(14) 0.85658(14) 0.54988(12)
C1 C 0.76389(17) 0.84167(16) 0.54046(14)
H1 H 0.7767 0.8387 0.5434
N2 N 0.75514(13) 0.83038(12) 0.52717(12)
C2 C 0.73682(16) 0.83600(18) 0.52445(16)
C3 C 0.72682(17) 0.85175(18) 0.53367(16)
C4 C 0.73683(19) 0.86156(19) 0.54683(19)
C5 C 0.70831(18) 0.83916(17) 0.51358(17)
H5 H 0.6973 0.8364 0.5063
N4 N 0.72442(14) 0.82821(14) 0.51165(13)
N5 N 0.72809(12) 0.87654(15) 0.55668(13)
H10A H 0.7162 0.8795 0.5543
H10B H 0.7345 0.8829 0.5652
O1 O 0.7500 0.79382(13) 0.5000
C11 C 0.8027(2) 0.8045(2) 0.5291(2)
O11A O 0.78896(14) 0.79480(17) 0.52316(16)
O11B O 0.80419(15) 0.82208(16) 0.52756(17)
C12 C 0.81824(18) 0.7939(2) 0.54023(17)
C13 C 0.83283(18) 0.80344(19) 0.5488(2)
H13 H 0.8332 0.8169 0.5482
C14 C 0.84767(19) 0.79351(18) 0.5588(2)
H14 H 0.8578 0.8005 0.5644
C15 C 0.84733(18) 0.77419(19) 0.5605(2)
C16 C 0.8319(2) 0.7652(2) 0.5529(3)
H16 H 0.8303 0.7520 0.5553
C17 C 0.8179(2) 0.7746(2) 0.5416(3)
H17 H 0.8084 0.7675 0.5351
C21 C 0.9070(2) 0.7322(2) 0.6012(2)
O21B O 0.90833(18) 0.71475(14) 0.6004(2)
C22 C 0.89157(17) 0.74332(19) 0.59038(17)
C23 C 0.89123(18) 0.76226(18) 0.5901(2)
H23 H 0.9008 0.7692 0.5966
C24 C 0.8765(2) 0.77234(19) 0.5802(2)
H24 H 0.8768 0.7858 0.5800
C25 C 0.86214(18) 0.7634(2) 0.5710(2)
C26 C 0.8631(2) 0.7440(2) 0.5704(3)
H26 H 0.8544 0.7370 0.5629
C27 C 0.8772(2) 0.7344(2) 0.5809(3)
H27 H 0.8767 0.7209 0.5815
C31 C 0.8048(2) 0.8543(2) 0.5748(2)
O31A O 0.80126(11) 0.86628(14) 0.56168(11)
O31B O 0.79228(12) 0.84862(18) 0.58550(14)
C32 C 0.82589(17) 0.84894(15) 0.57886(16)
C33 C 0.83087(18) 0.83754(18) 0.59395(19)
H33 H 0.8212 0.8324 0.6018
C34 C 0.85018(18) 0.8334(2) 0.59792(19)
H34A H 0.8534 0.8257 0.6085
C35 C 0.86418(16) 0.84052(17) 0.58633(18)
C36 C 0.85932(18) 0.85179(17) 0.57110(17)
H36A H 0.8690 0.8566 0.5631
C37 C 0.84000(16) 0.85620(18) 0.56730(17)
H37A H 0.8368 0.8641 0.5569
C31 C 0.9452(2) 0.8248(2) 0.6043(2)
O31A O 0.94874(11) 0.81168(11) 0.61628(14)
O31B O 0.95772(12) 0.83550(14) 0.59862(18)
C32 C 0.92411(17) 0.82886(16) 0.59894(15)
C33 C 0.91913(18) 0.84395(19) 0.58754(18)
H33 H 0.9288 0.8518 0.5824
C34 C 0.89982(18) 0.84792(19) 0.5834(2)
H34A H 0.8966 0.8585 0.5757
C35 C 0.88582(16) 0.83633(18) 0.59052(17)
C36 C 0.89068(18) 0.82110(17) 0.60179(17)
H36A H 0.8810 0.8131 0.6066
C37 C 0.91000(16) 0.81730(17) 0.60620(18)
H37A H 0.9132 0.8069 0.6141
Zn1 Zn 0.97986(2) 0.76054(2) 0.56033(2)
N1 N 0.99370(14) 0.79988(12) 0.60658(14)
C1 C 0.98611(17) 0.79046(14) 0.59167(16)
H1 H 0.9733 0.7934 0.5887
N2 N 0.99486(13) 0.77717(12) 0.58038(12)
C2 C 1.01318(16) 0.77445(16) 0.58600(18)
C3 C 1.02318(17) 0.78367(16) 0.60175(18)
C4 C 1.01317(19) 0.79683(19) 0.61156(19)
N3 N 1.04166(12) 0.77621(13) 0.60412(15)
C5 C 1.04169(18) 0.76358(17) 0.58916(17)
H5 H 1.0527 0.7563 0.5864
N4 N 1.02558(14) 0.76165(13) 0.57821(14)
N5 N 1.02191(12) 0.80668(13) 0.62654(15)
H10A H 1.0338 0.8043 0.6295
H10B H 1.0155 0.8152 0.6329
C11 C 0.9473(2) 0.7791(2) 0.5545(2)
O11A O 0.96104(14) 0.77316(16) 0.54480(17)
O11B O 0.94581(15) 0.77756(17) 0.57208(16)
C12 C 0.93176(18) 0.79023(17) 0.5439(2)
C13 C 0.91717(18) 0.7988(2) 0.55344(19)
H13 H 0.9168 0.7982 0.5669
C14 C 0.90233(19) 0.8088(2) 0.54351(18)
H14 H 0.8922 0.8144 0.5505
C15 C 0.90267(18) 0.8105(2) 0.52419(19)
C16 C 0.9181(2) 0.8029(3) 0.5152(2)
H16 H 0.9197 0.8053 0.5020
C17 C 0.9321(2) 0.7916(3) 0.5246(2)
H17 H 0.9416 0.7851 0.5175
C21 C 0.8430(2) 0.8512(2) 0.4822(2)
O21B O 0.84167(18) 0.8504(2) 0.46475(14)
C22 C 0.85843(17) 0.84038(17) 0.49332(19)
C23 C 0.85877(18) 0.8401(2) 0.51226(18)
H23 H 0.8492 0.8466 0.5192
C24 C 0.8735(2) 0.8302(2) 0.52234(19)
H24 H 0.8732 0.8300 0.5358
C25 C 0.88786(18) 0.8210(2) 0.5134(2)
C26 C 0.8869(2) 0.8204(3) 0.4940(2)
H26 H 0.8956 0.8129 0.4870
C27 C 0.8728(2) 0.8309(3) 0.4844(2)
H27 H 0.8733 0.8315 0.4709
Zn1 Zn 0.72986(2) 0.81033(2) 0.48946(2)
Zn1 Zn 1.02014(2) 0.73946(2) 0.56033(2)
Zn2 Zn 1.063116(18) 0.775396(18) 0.62422(2)
N4 N 0.77558(14) 0.82821(14) 0.48835(13)
N4 N 0.97442(14) 0.73835(13) 0.57821(14)
O1 O 1.0000 0.7500 0.54382(13)
O21A O 0.99168(11) 0.83232(10) 0.63807(12)
Zn1 Zn 0.22986(2) 0.31033(2) 0.98946(2)
N1 N 0.24370(14) 0.35658(14) 0.95012(12)
C1 C 0.23611(17) 0.34167(16) 0.95954(14)
H1 H 0.2233 0.3387 0.9566
N2 N 0.24486(13) 0.33038(12) 0.97283(12)
C2 C 0.26318(16) 0.33600(18) 0.97555(16)
C3 C 0.27318(17) 0.35175(18) 0.96633(16)
C4 C 0.26317(19) 0.36156(19) 0.95317(19)
C5 C 0.29169(18) 0.33916(17) 0.98642(17)
H5 H 0.3027 0.3364 0.9937
N4 N 0.27558(14) 0.32821(14) 0.98835(13)
N5 N 0.27191(12) 0.37654(15) 0.94332(13)
H10A H 0.2838 0.3795 0.9457
H10B H 0.2655 0.3829 0.9348
O1 O 0.2500 0.29382(13) 1.0000
C11 C 0.1973(2) 0.3045(2) 0.9709(2)
O11A O 0.21104(14) 0.29480(17) 0.97684(16)
O11B O 0.19581(15) 0.32208(16) 0.97244(17)
C12 C 0.18176(18) 0.2939(2) 0.95977(17)
C13 C 0.16717(18) 0.30344(19) 0.9512(2)
H13 H 0.1668 0.3169 0.9518
C14 C 0.15233(19) 0.29351(18) 0.9412(2)
H14 H 0.1422 0.3005 0.9356
C15 C 0.15267(18) 0.27419(19) 0.9395(2)
C16 C 0.1681(2) 0.2652(2) 0.9471(3)
H16 H 0.1697 0.2520 0.9447
C17 C 0.1821(2) 0.2746(2) 0.9584(3)
H17 H 0.1916 0.2675 0.9649
C21 C 0.0930(2) 0.2322(2) 0.8988(2)
O21B O 0.09167(18) 0.21475(14) 0.8996(2)
C22 C 0.10843(17) 0.24332(19) 0.90962(17)
C23 C 0.10877(18) 0.26226(18) 0.9099(2)
H23 H 0.0992 0.2692 0.9034
C24 C 0.1235(2) 0.27234(19) 0.9198(2)
H24 H 0.1232 0.2858 0.9200
C25 C 0.13786(18) 0.2634(2) 0.9290(2)
C26 C 0.1369(2) 0.2440(2) 0.9296(3)
H26 H 0.1456 0.2370 0.9371
C27 C 0.1228(2) 0.2344(2) 0.9191(3)
H27 H 0.1233 0.2209 0.9185
C31 C 0.1952(2) 0.3543(2) 0.9252(2)
O31A O 0.19874(11) 0.36628(14) 0.93832(11)
O31B O 0.20772(12) 0.34862(18) 0.91450(14)
C32 C 0.17411(17) 0.34894(15) 0.92114(16)
C33 C 0.16913(18) 0.33754(18) 0.90605(19)
H33 H 0.1788 0.3324 0.8982
C34 C 0.14982(18) 0.3334(2) 0.90208(19)
H34A H 0.1466 0.3257 0.8915
C35 C 0.13582(16) 0.34052(17) 0.91367(18)
C36 C 0.14068(18) 0.35179(17) 0.92890(17)
H36A H 0.1310 0.3566 0.9369
C37 C 0.16000(16) 0.35620(18) 0.93270(17)
H37A H 0.1632 0.3641 0.9431
C31 C 0.0548(2) 0.3248(2) 0.8957(2)
O31A O 0.05126(11) 0.31168(11) 0.88372(14)
O31B O 0.04228(12) 0.33550(14) 0.90138(18)
C32 C 0.07589(17) 0.32886(16) 0.90106(15)
C33 C 0.08087(18) 0.34395(19) 0.91246(18)
H33 H 0.0712 0.3518 0.9176
C34 C 0.10018(18) 0.34792(19) 0.9166(2)
H34A H 0.1034 0.3585 0.9243
C35 C 0.11418(16) 0.33633(18) 0.90948(17)
C36 C 0.10932(18) 0.32110(17) 0.89821(17)
H36A H 0.1190 0.3131 0.8934
C37 C 0.09000(16) 0.31730(17) 0.89380(18)
H37A H 0.0868 0.3069 0.8859
Zn1 Zn 0.02014(2) 0.26054(2) 0.93967(2)
N1 N 0.00630(14) 0.29988(12) 0.89342(14)
C1 C 0.01389(17) 0.29046(14) 0.90833(16)
H1 H 0.0267 0.2934 0.9113
N2 N 0.00514(13) 0.27717(12) 0.91962(12)
C2 C -0.01318(16) 0.27445(16) 0.91400(18)
C3 C -0.02318(17) 0.28367(16) 0.89825(18)
C4 C -0.01317(19) 0.29683(19) 0.88844(19)
N3 N -0.04166(12) 0.27621(13) 0.89588(15)
C5 C -0.04169(18) 0.26358(17) 0.91084(17)
H5 H -0.0527 0.2563 0.9136
N4 N -0.02558(14) 0.26165(13) 0.92179(14)
N5 N -0.02191(12) 0.30668(13) 0.87346(15)
H10A H -0.0338 0.3043 0.8705
H10B H -0.0155 0.3152 0.8671
C11 C 0.0527(2) 0.2791(2) 0.9455(2)
O11A O 0.03896(14) 0.27316(16) 0.95520(17)
O11B O 0.05419(15) 0.27756(17) 0.92792(16)
C12 C 0.06824(18) 0.29023(17) 0.9561(2)
C13 C 0.08283(18) 0.2988(2) 0.94656(19)
H13 H 0.0832 0.2982 0.9331
C14 C 0.09767(19) 0.3088(2) 0.95649(18)
H14 H 0.1078 0.3144 0.9495
C15 C 0.09733(18) 0.3105(2) 0.97581(19)
C16 C 0.0819(2) 0.3029(3) 0.9848(2)
H16 H 0.0803 0.3053 0.9980
C17 C 0.0679(2) 0.2916(3) 0.9754(2)
H17 H 0.0584 0.2851 0.9825
C21 C 0.1570(2) 0.3512(2) 1.0178(2)
O21A O 0.16768(10) 0.36193(12) 1.00832(11)
O21B O 0.15833(18) 0.3504(2) 1.03525(14)
C22 C 0.14157(17) 0.34038(17) 1.00668(19)
C23 C 0.14123(18) 0.3401(2) 0.98774(18)
H23 H 0.1508 0.3466 0.9808
C24 C 0.1265(2) 0.3302(2) 0.97766(19)
H24 H 0.1268 0.3300 0.9642
C25 C 0.11214(18) 0.3210(2) 0.9866(2)
C26 C 0.1131(2) 0.3204(3) 1.0060(2)
H26 H 0.1044 0.3129 1.0130
C27 C 0.1272(2) 0.3309(3) 1.0156(2)
H27 H 0.1267 0.3315 1.0291
Zn1 Zn 0.27014(2) 0.31033(2) 1.01054(2)
Zn1 Zn -0.02014(2) 0.23946(2) 0.93967(2)
Zn2 Zn -0.063116(18) 0.275396(18) 0.87578(2)
Zn2 Zn 0.186884(18) 0.37422(2) 1.025396(18)
N3 N 0.22379(13) 0.39588(15) 0.95834(12)
N4 N 0.22442(14) 0.32821(14) 1.01165(13)
N4 N 0.02558(14) 0.23835(13) 0.92179(14)
O1 O 0.0000 0.2500 0.95618(13)
O21A O 0.00832(11) 0.33232(10) 0.86193(12)
Zn1 Zn 0.27014(2) 0.68967(2) 0.48946(2)
N1 N 0.25630(14) 0.64342(14) 0.45012(12)
C1 C 0.26389(17) 0.65833(16) 0.45954(14)
H1 H 0.2767 0.6613 0.4566
N2 N 0.25514(13) 0.66962(12) 0.47283(12)
C2 C 0.23682(16) 0.66400(18) 0.47555(16)
C3 C 0.22682(17) 0.64825(18) 0.46633(16)
C4 C 0.23683(19) 0.63844(19) 0.45317(19)
C5 C 0.20831(18) 0.66084(17) 0.48642(17)
H5 H 0.1973 0.6636 0.4937
N4 N 0.22442(14) 0.67179(14) 0.48835(13)
N5 N 0.22809(12) 0.62346(15) 0.44332(13)
H10A H 0.2162 0.6205 0.4457
H10B H 0.2345 0.6171 0.4348
O1 O 0.2500 0.70618(13) 0.5000
C11 C 0.3027(2) 0.6955(2) 0.4709(2)
O11A O 0.28896(14) 0.70520(17) 0.47684(16)
O11B O 0.30419(15) 0.67792(16) 0.47244(17)
C12 C 0.31824(18) 0.7061(2) 0.45977(17)
C13 C 0.33283(18) 0.69656(19) 0.4512(2)
H13 H 0.3332 0.6831 0.4518
C14 C 0.34767(19) 0.70649(18) 0.4412(2)
H14 H 0.3578 0.6995 0.4356
C15 C 0.34733(18) 0.72581(19) 0.4395(2)
C16 C 0.3319(2) 0.7348(2) 0.4471(3)
H16 H 0.3303 0.7480 0.4447
C17 C 0.3179(2) 0.7254(2) 0.4584(3)
H17 H 0.3084 0.7325 0.4649
C21 C 0.4070(2) 0.7678(2) 0.3988(2)
O21B O 0.40833(18) 0.78525(14) 0.3996(2)
C22 C 0.39157(17) 0.75668(19) 0.40962(17)
C23 C 0.39123(18) 0.73774(18) 0.4099(2)
H23 H 0.4008 0.7308 0.4034
C24 C 0.3765(2) 0.72766(19) 0.4198(2)
H24 H 0.3768 0.7142 0.4200
C25 C 0.36214(18) 0.7366(2) 0.4290(2)
C26 C 0.3631(2) 0.7560(2) 0.4296(3)
H26 H 0.3544 0.7630 0.4371
C27 C 0.3772(2) 0.7656(2) 0.4191(3)
H27 H 0.3767 0.7791 0.4185
C31 C 0.3048(2) 0.6457(2) 0.4252(2)
O31A O 0.30126(11) 0.63372(14) 0.43832(11)
O31B O 0.29228(12) 0.65138(18) 0.41450(14)
C32 C 0.32589(17) 0.65106(15) 0.42114(16)
C33 C 0.33087(18) 0.66246(18) 0.40605(19)
H33 H 0.3212 0.6676 0.3982
C34 C 0.35018(18) 0.6666(2) 0.40208(19)
H34A H 0.3534 0.6743 0.3915
C35 C 0.36418(16) 0.65948(17) 0.41367(18)
C36 C 0.35932(18) 0.64821(17) 0.42890(17)
H36A H 0.3690 0.6434 0.4369
C37 C 0.34000(16) 0.64380(18) 0.43270(17)
H37A H 0.3368 0.6359 0.4431
C31 C 0.4452(2) 0.6752(2) 0.3957(2)
O31A O 0.44874(11) 0.68832(11) 0.38372(14)
O31B O 0.45772(12) 0.66450(14) 0.40138(18)
C32 C 0.42411(17) 0.67114(16) 0.40106(15)
C33 C 0.41913(18) 0.65605(19) 0.41246(18)
H33 H 0.4288 0.6482 0.4176
C34 C 0.39982(18) 0.65208(19) 0.4166(2)
H34A H 0.3966 0.6415 0.4243
C35 C 0.38582(16) 0.66367(18) 0.40948(17)
C36 C 0.39068(18) 0.67890(17) 0.39821(17)
H36A H 0.3810 0.6869 0.3934
C37 C 0.41000(16) 0.68270(17) 0.39380(18)
H37A H 0.4132 0.6931 0.3859
Zn1 Zn 0.47986(2) 0.73946(2) 0.43967(2)
N1 N 0.49370(14) 0.70012(12) 0.39342(14)
C1 C 0.48611(17) 0.70954(14) 0.40833(16)
H1 H 0.4733 0.7066 0.4113
N2 N 0.49486(13) 0.72283(12) 0.41962(12)
C2 C 0.51318(16) 0.72555(16) 0.41400(18)
C3 C 0.52318(17) 0.71633(16) 0.39825(18)
C4 C 0.51317(19) 0.70317(19) 0.38844(19)
C5 C 0.54169(18) 0.73642(17) 0.41084(17)
H5 H 0.5527 0.7437 0.4136
N4 N 0.52558(14) 0.73835(13) 0.42179(14)
N5 N 0.52191(12) 0.69332(13) 0.37346(15)
H10A H 0.5338 0.6957 0.3705
H10B H 0.5155 0.6848 0.3671
C11 C 0.4473(2) 0.7209(2) 0.4455(2)
O11A O 0.46104(14) 0.72684(16) 0.45520(17)
O11B O 0.44581(15) 0.72244(17) 0.42792(16)
C12 C 0.43176(18) 0.70977(17) 0.4561(2)
C13 C 0.41717(18) 0.7012(2) 0.44656(19)
H13 H 0.4168 0.7018 0.4331
C14 C 0.40233(19) 0.6912(2) 0.45649(18)
H14 H 0.3922 0.6856 0.4495
C15 C 0.40267(18) 0.6895(2) 0.47581(19)
C16 C 0.4181(2) 0.6971(3) 0.4848(2)
H16 H 0.4197 0.6947 0.4980
C17 C 0.4321(2) 0.7084(3) 0.4754(2)
H17 H 0.4416 0.7149 0.4825
C21 C 0.3430(2) 0.6488(2) 0.5178(2)
O21B O 0.34167(18) 0.6496(2) 0.53525(14)
C22 C 0.35843(17) 0.65962(17) 0.50668(19)
C23 C 0.35877(18) 0.6599(2) 0.48774(18)
H23 H 0.3492 0.6534 0.4808
C24 C 0.3735(2) 0.6698(2) 0.47766(19)
H24 H 0.3732 0.6700 0.4642
C25 C 0.38786(18) 0.6790(2) 0.4866(2)
C26 C 0.3869(2) 0.6796(3) 0.5060(2)
H26 H 0.3956 0.6871 0.5130
C27 C 0.3728(2) 0.6691(3) 0.5156(2)
H27 H 0.3733 0.6685 0.5291
Zn1 Zn 0.22986(2) 0.68967(2) 0.51054(2)
Zn1 Zn 0.52014(2) 0.76054(2) 0.43967(2)
N4 N 0.27558(14) 0.67179(14) 0.51165(13)
N4 N 0.47442(14) 0.76165(13) 0.42179(14)
O1 O 0.5000 0.7500 0.45618(13)
Zn1 Zn 0.72986(2) 0.18967(2) 0.01054(2)
N1 N 0.74370(14) 0.14342(14) 0.04988(12)
C1 C 0.73611(17) 0.15833(16) 0.04046(14)
H1 H 0.7233 0.1613 0.0434
N2 N 0.74486(13) 0.16962(12) 0.02717(12)
C2 C 0.76318(16) 0.16400(18) 0.02445(16)
C3 C 0.77318(17) 0.14825(18) 0.03367(16)
C4 C 0.76317(19) 0.13844(19) 0.04683(19)
C5 C 0.79169(18) 0.16084(17) 0.01358(17)
H5 H 0.8027 0.1636 0.0063
N4 N 0.77558(14) 0.17179(14) 0.01165(13)
N5 N 0.77191(12) 0.12346(15) 0.05668(13)
H10A H 0.7838 0.1205 0.0543
H10B H 0.7655 0.1171 0.0652
O1 O 0.7500 0.20618(13) 0.0000
C11 C 0.6973(2) 0.1955(2) 0.0291(2)
O11A O 0.71104(14) 0.20520(17) 0.02316(16)
O11B O 0.69581(15) 0.17792(16) 0.02756(17)
C12 C 0.68176(18) 0.2061(2) 0.04023(17)
C13 C 0.66717(18) 0.19656(19) 0.0488(2)
H13 H 0.6668 0.1831 0.0482
C14 C 0.65233(19) 0.20649(18) 0.0588(2)
H14 H 0.6422 0.1995 0.0644
C15 C 0.65267(18) 0.22581(19) 0.0605(2)
C16 C 0.6681(2) 0.2348(2) 0.0529(3)
H16 H 0.6697 0.2480 0.0553
C17 C 0.6821(2) 0.2254(2) 0.0416(3)
H17 H 0.6916 0.2325 0.0351
C21 C 0.5930(2) 0.2678(2) 0.1012(2)
O21B O 0.59167(18) 0.28525(14) 0.1004(2)
C22 C 0.60843(17) 0.25668(19) 0.09038(17)
C23 C 0.60877(18) 0.23774(18) 0.0901(2)
H23 H 0.5992 0.2308 0.0966
C24 C 0.6235(2) 0.22766(19) 0.0802(2)
H24 H 0.6232 0.2142 0.0800
C25 C 0.63786(18) 0.2366(2) 0.0710(2)
C26 C 0.6369(2) 0.2560(2) 0.0704(3)
H26 H 0.6456 0.2630 0.0629
C27 C 0.6228(2) 0.2656(2) 0.0809(3)
H27 H 0.6233 0.2791 0.0815
C31 C 0.6952(2) 0.1457(2) 0.0748(2)
O31A O 0.69874(11) 0.13372(14) 0.06168(11)
O31B O 0.70772(12) 0.15138(18) 0.08550(14)
C32 C 0.67411(17) 0.15106(15) 0.07886(16)
C33 C 0.66913(18) 0.16246(18) 0.09395(19)
H33 H 0.6788 0.1676 0.1018
C34 C 0.64982(18) 0.1666(2) 0.09792(19)
H34A H 0.6466 0.1743 0.1085
C35 C 0.63582(16) 0.15948(17) 0.08633(18)
C36 C 0.64068(18) 0.14821(17) 0.07110(17)
H36A H 0.6310 0.1434 0.0631
C37 C 0.66000(16) 0.14380(18) 0.06730(17)
H37A H 0.6632 0.1359 0.0569
C31 C 0.5548(2) 0.1752(2) 0.1043(2)
O31A O 0.55126(11) 0.18832(11) 0.11628(14)
O31B O 0.54228(12) 0.16450(14) 0.09862(18)
C32 C 0.57589(17) 0.17114(16) 0.09894(15)
C33 C 0.58087(18) 0.15605(19) 0.08754(18)
H33 H 0.5712 0.1482 0.0824
C34 C 0.60018(18) 0.15208(19) 0.0834(2)
H34A H 0.6034 0.1415 0.0757
C35 C 0.61418(16) 0.16367(18) 0.09052(17)
C36 C 0.60932(18) 0.17890(17) 0.10179(17)
H36A H 0.6190 0.1869 0.1066
C37 C 0.59000(16) 0.18270(17) 0.10620(18)
H37A H 0.5868 0.1931 0.1141
Zn1 Zn 0.52014(2) 0.23946(2) 0.06033(2)
N1 N 0.50630(14) 0.20012(12) 0.10658(14)
C1 C 0.51389(17) 0.20954(14) 0.09167(16)
H1 H 0.5267 0.2066 0.0887
N2 N 0.50514(13) 0.22283(12) 0.08038(12)
C2 C 0.48682(16) 0.22555(16) 0.08600(18)
C3 C 0.47682(17) 0.21633(16) 0.10175(18)
C4 C 0.48683(19) 0.20317(19) 0.11156(19)
C5 C 0.45831(18) 0.23642(17) 0.08916(17)
H5 H 0.4473 0.2437 0.0864
N4 N 0.47442(14) 0.23835(13) 0.07821(14)
N5 N 0.47809(12) 0.19332(13) 0.12654(15)
H10A H 0.4662 0.1957 0.1295
H10B H 0.4845 0.1848 0.1329
C11 C 0.5527(2) 0.2209(2) 0.0545(2)
O11A O 0.53896(14) 0.22684(16) 0.04480(17)
O11B O 0.55419(15) 0.22244(17) 0.07208(16)
C12 C 0.56824(18) 0.20977(17) 0.0439(2)
C13 C 0.58283(18) 0.2012(2) 0.05344(19)
H13 H 0.5832 0.2018 0.0669
C14 C 0.59767(19) 0.1912(2) 0.04351(18)
H14 H 0.6078 0.1856 0.0505
C15 C 0.59733(18) 0.1895(2) 0.02419(19)
C16 C 0.5819(2) 0.1971(3) 0.0152(2)
H16 H 0.5803 0.1947 0.0020
C17 C 0.5679(2) 0.2084(3) 0.0246(2)
H17 H 0.5584 0.2149 0.0175
C21 C 0.6570(2) 0.1488(2) -0.0178(2)
O21A O 0.66768(10) 0.13807(12) -0.00832(11)
O21B O 0.65833(18) 0.1496(2) -0.03525(14)
C22 C 0.64157(17) 0.15962(17) -0.00668(19)
C23 C 0.64123(18) 0.1599(2) 0.01226(18)
H23 H 0.6508 0.1534 0.0192
C24 C 0.6265(2) 0.1698(2) 0.02234(19)
H24 H 0.6268 0.1700 0.0358
C25 C 0.61214(18) 0.1790(2) 0.0134(2)
C26 C 0.6131(2) 0.1796(3) -0.0060(2)
H26 H 0.6044 0.1871 -0.0130
C27 C 0.6272(2) 0.1691(3) -0.0156(2)
H27 H 0.6267 0.1685 -0.0291
Zn1 Zn 0.77014(2) 0.18967(2) -0.01054(2)
Zn1 Zn 0.47986(2) 0.26054(2) 0.06033(2)
Zn2 Zn 0.686884(18) 0.12578(2) -0.025396(18)
N3 N 0.72379(13) 0.10412(15) 0.04166(12)
N4 N 0.72442(14) 0.17179(14) -0.01165(13)
N4 N 0.52558(14) 0.26165(13) 0.07821(14)
O1 O 0.5000 0.2500 0.04382(13)
Zn1 Zn 0.01054(2) 0.27014(2) 0.31033(2)
N1 N 0.04988(12) 0.25630(14) 0.35658(14)
C1 C 0.04046(14) 0.26389(17) 0.34167(16)
H1 H 0.0434 0.2767 0.3387
N2 N 0.02717(12) 0.25514(13) 0.33038(12)
C2 C 0.02445(16) 0.23682(16) 0.33600(18)
C3 C 0.03367(16) 0.22682(17) 0.35175(18)
C4 C 0.04683(19) 0.23683(19) 0.36156(19)
C5 C 0.01358(17) 0.20831(18) 0.33916(17)
H5 H 0.0063 0.1973 0.3364
N4 N 0.01165(13) 0.22442(14) 0.32821(14)
N5 N 0.05668(13) 0.22809(12) 0.37654(15)
H10A H 0.0543 0.2162 0.3795
H10B H 0.0652 0.2345 0.3829
O1 O 0.0000 0.2500 0.29382(13)
C11 C 0.0291(2) 0.3027(2) 0.3045(2)
O11A O 0.02316(16) 0.28896(14) 0.29480(17)
O11B O 0.02756(17) 0.30419(15) 0.32208(16)
C12 C 0.04023(17) 0.31824(18) 0.2939(2)
C13 C 0.0488(2) 0.33283(18) 0.30344(19)
H13 H 0.0482 0.3332 0.3169
C14 C 0.0588(2) 0.34767(19) 0.29351(18)
H14 H 0.0644 0.3578 0.3005
C15 C 0.0605(2) 0.34733(18) 0.27419(19)
C16 C 0.0529(3) 0.3319(2) 0.2652(2)
H16 H 0.0553 0.3303 0.2520
C17 C 0.0416(3) 0.3179(2) 0.2746(2)
H17 H 0.0351 0.3084 0.2675
C21 C 0.1012(2) 0.4070(2) 0.2322(2)
O21B O 0.1004(2) 0.40833(18) 0.21475(14)
C22 C 0.09038(17) 0.39157(17) 0.24332(19)
C23 C 0.0901(2) 0.39123(18) 0.26226(18)
H23 H 0.0966 0.4008 0.2692
C24 C 0.0802(2) 0.3765(2) 0.27234(19)
H24 H 0.0800 0.3768 0.2858
C25 C 0.0710(2) 0.36214(18) 0.2634(2)
C26 C 0.0704(3) 0.3631(2) 0.2440(2)
H26 H 0.0629 0.3544 0.2370
C27 C 0.0809(3) 0.3772(2) 0.2344(2)
H27 H 0.0815 0.3767 0.2209
C31 C 0.0748(2) 0.3048(2) 0.3543(2)
O31A O 0.06168(11) 0.30126(11) 0.36628(14)
O31B O 0.08550(14) 0.29228(12) 0.34862(18)
C32 C 0.07886(16) 0.32589(17) 0.34894(15)
C33 C 0.09395(19) 0.33087(18) 0.33754(18)
H33 H 0.1018 0.3212 0.3324
C34 C 0.09792(19) 0.35018(18) 0.3334(2)
H34A H 0.1085 0.3534 0.3257
C35 C 0.08633(18) 0.36418(16) 0.34052(17)
C36 C 0.07110(17) 0.35932(18) 0.35179(17)
H36A H 0.0631 0.3690 0.3566
C37 C 0.06730(17) 0.34000(16) 0.35620(18)
H37A H 0.0569 0.3368 0.3641
C31 C 0.1043(2) 0.4452(2) 0.3248(2)
O31A O 0.11628(14) 0.44874(11) 0.31168(11)
O31B O 0.09862(18) 0.45772(12) 0.33550(14)
C32 C 0.09894(15) 0.42411(17) 0.32886(16)
C33 C 0.08754(18) 0.41913(18) 0.34395(19)
H33 H 0.0824 0.4288 0.3518
C34 C 0.0834(2) 0.39982(18) 0.34792(19)
H34A H 0.0757 0.3966 0.3585
C35 C 0.09052(17) 0.38582(16) 0.33633(18)
C36 C 0.10179(17) 0.39068(18) 0.32110(17)
H36A H 0.1066 0.3810 0.3131
C37 C 0.10620(18) 0.41000(16) 0.31730(17)
H37A H 0.1141 0.4132 0.3069
N1 N 0.10658(14) 0.49370(14) 0.29988(12)
C1 C 0.09167(16) 0.48611(17) 0.29046(14)
H1 H 0.0887 0.4733 0.2934
N2 N 0.08038(12) 0.49486(13) 0.27717(12)
C2 C 0.08600(18) 0.51318(16) 0.27445(16)
C3 C 0.10175(18) 0.52318(17) 0.28367(16)
C4 C 0.11156(19) 0.51317(19) 0.29683(19)
C5 C 0.08916(17) 0.54169(18) 0.26358(17)
H5 H 0.0864 0.5527 0.2563
N5 N 0.12654(15) 0.52191(12) 0.30668(13)
H10A H 0.1295 0.5338 0.3043
H10B H 0.1329 0.5155 0.3152
C11 C 0.0545(2) 0.4473(2) 0.2791(2)
O11A O 0.04480(17) 0.46104(14) 0.27316(16)
O11B O 0.07208(16) 0.44581(15) 0.27756(17)
C12 C 0.0439(2) 0.43176(18) 0.29023(17)
C13 C 0.05344(19) 0.41717(18) 0.2988(2)
H13 H 0.0669 0.4168 0.2982
C14 C 0.04351(18) 0.40233(19) 0.3088(2)
H14 H 0.0505 0.3922 0.3144
C15 C 0.02419(19) 0.40267(18) 0.3105(2)
C16 C 0.0152(2) 0.4181(2) 0.3029(3)
H16 H 0.0020 0.4197 0.3053
C17 C 0.0246(2) 0.4321(2) 0.2916(3)
H17 H 0.0175 0.4416 0.2851
C21 C -0.0178(2) 0.3430(2) 0.3512(2)
O21A O -0.00832(11) 0.33232(10) 0.36193(12)
O21B O -0.03525(14) 0.34167(18) 0.3504(2)
C22 C -0.00668(19) 0.35843(17) 0.34038(17)
C23 C 0.01226(18) 0.35877(18) 0.3401(2)
H23 H 0.0192 0.3492 0.3466
C24 C 0.02234(19) 0.3735(2) 0.3302(2)
H24 H 0.0358 0.3732 0.3300
C25 C 0.0134(2) 0.38786(18) 0.3210(2)
C26 C -0.0060(2) 0.3869(2) 0.3204(3)
H26 H -0.0130 0.3956 0.3129
C27 C -0.0156(2) 0.3728(2) 0.3309(3)
H27 H -0.0291 0.3733 0.3315
Zn1 Zn -0.01054(2) 0.22986(2) 0.31033(2)
Zn2 Zn -0.025396(18) 0.313116(18) 0.37422(2)
N3 N 0.04166(12) 0.27621(13) 0.39588(15)
N4 N -0.01165(13) 0.27558(14) 0.32821(14)
N1 N 0.45012(12) 0.74370(14) 0.85658(14)
C1 C 0.45954(14) 0.73611(17) 0.84167(16)
H1 H 0.4566 0.7233 0.8387
N2 N 0.47283(12) 0.74486(13) 0.83038(12)
C2 C 0.47555(16) 0.76318(16) 0.83600(18)
C3 C 0.46633(16) 0.77318(17) 0.85175(18)
C4 C 0.45317(19) 0.76317(19) 0.86156(19)
C5 C 0.48642(17) 0.79169(18) 0.83916(17)
H5 H 0.4937 0.8027 0.8364
N5 N 0.44332(13) 0.77191(12) 0.87654(15)
H10A H 0.4457 0.7838 0.8795
H10B H 0.4348 0.7655 0.8829
C11 C 0.4709(2) 0.6973(2) 0.8045(2)
O11A O 0.47684(16) 0.71104(14) 0.79480(17)
O11B O 0.47244(17) 0.69581(15) 0.82208(16)
C12 C 0.45977(17) 0.68176(18) 0.7939(2)
C13 C 0.4512(2) 0.66717(18) 0.80344(19)
H13 H 0.4518 0.6668 0.8169
C14 C 0.4412(2) 0.65233(19) 0.79351(18)
H14 H 0.4356 0.6422 0.8005
C15 C 0.4395(2) 0.65267(18) 0.77419(19)
C16 C 0.4471(3) 0.6681(2) 0.7652(2)
H16 H 0.4447 0.6697 0.7520
C17 C 0.4584(3) 0.6821(2) 0.7746(2)
H17 H 0.4649 0.6916 0.7675
C21 C 0.3988(2) 0.5930(2) 0.7322(2)
O21B O 0.3996(2) 0.59167(18) 0.71475(14)
C22 C 0.40962(17) 0.60843(17) 0.74332(19)
C23 C 0.4099(2) 0.60877(18) 0.76226(18)
H23 H 0.4034 0.5992 0.7692
C24 C 0.4198(2) 0.6235(2) 0.77234(19)
H24 H 0.4200 0.6232 0.7858
C25 C 0.4290(2) 0.63786(18) 0.7634(2)
C26 C 0.4296(3) 0.6369(2) 0.7440(2)
H26 H 0.4371 0.6456 0.7370
C27 C 0.4191(3) 0.6228(2) 0.7344(2)
H27 H 0.4185 0.6233 0.7209
C31 C 0.4252(2) 0.6952(2) 0.8543(2)
O31A O 0.43832(11) 0.69874(11) 0.86628(14)
O31B O 0.41450(14) 0.70772(12) 0.84862(18)
C32 C 0.42114(16) 0.67411(17) 0.84894(15)
C33 C 0.40605(19) 0.66913(18) 0.83754(18)
H33 H 0.3982 0.6788 0.8324
C34 C 0.40208(19) 0.64982(18) 0.8334(2)
H34A H 0.3915 0.6466 0.8257
C35 C 0.41367(18) 0.63582(16) 0.84052(17)
C36 C 0.42890(17) 0.64068(18) 0.85179(17)
H36A H 0.4369 0.6310 0.8566
C37 C 0.43270(17) 0.66000(16) 0.85620(18)
H37A H 0.4431 0.6632 0.8641
C31 C 0.3957(2) 0.5548(2) 0.8248(2)
O31A O 0.38372(14) 0.55126(11) 0.81168(11)
O31B O 0.40138(18) 0.54228(12) 0.83550(14)
C32 C 0.40106(15) 0.57589(17) 0.82886(16)
C33 C 0.41246(18) 0.58087(18) 0.84395(19)
H33 H 0.4176 0.5712 0.8518
C34 C 0.4166(2) 0.60018(18) 0.84792(19)
H34A H 0.4243 0.6034 0.8585
C35 C 0.40948(17) 0.61418(16) 0.83633(18)
C36 C 0.39821(17) 0.60932(18) 0.82110(17)
H36A H 0.3934 0.6190 0.8131
C37 C 0.39380(18) 0.59000(16) 0.81730(17)
H37A H 0.3859 0.5868 0.8069
N1 N 0.39342(14) 0.50630(14) 0.79988(12)
C1 C 0.40833(16) 0.51389(17) 0.79046(14)
H1 H 0.4113 0.5267 0.7934
N2 N 0.41962(12) 0.50514(13) 0.77717(12)
C2 C 0.41400(18) 0.48682(16) 0.77445(16)
C3 C 0.39825(18) 0.47682(17) 0.78367(16)
C4 C 0.38844(19) 0.48683(19) 0.79683(19)
C5 C 0.41084(17) 0.45831(18) 0.76358(17)
H5 H 0.4136 0.4473 0.7563
N5 N 0.37346(15) 0.47809(12) 0.80668(13)
H10A H 0.3705 0.4662 0.8043
H10B H 0.3671 0.4845 0.8152
C11 C 0.4455(2) 0.5527(2) 0.7791(2)
O11A O 0.45520(17) 0.53896(14) 0.77316(16)
O11B O 0.42792(16) 0.55419(15) 0.77756(17)
C12 C 0.4561(2) 0.56824(18) 0.79023(17)
C13 C 0.44656(19) 0.58283(18) 0.7988(2)
H13 H 0.4331 0.5832 0.7982
C14 C 0.45649(18) 0.59767(19) 0.8088(2)
H14 H 0.4495 0.6078 0.8144
C15 C 0.47581(19) 0.59733(18) 0.8105(2)
C16 C 0.4848(2) 0.5819(2) 0.8029(3)
H16 H 0.4980 0.5803 0.8053
C17 C 0.4754(2) 0.5679(2) 0.7916(3)
H17 H 0.4825 0.5584 0.7851
C21 C 0.5178(2) 0.6570(2) 0.8512(2)
O21B O 0.53525(14) 0.65833(18) 0.8504(2)
C22 C 0.50668(19) 0.64157(17) 0.84038(17)
C23 C 0.48774(18) 0.64123(18) 0.8401(2)
H23 H 0.4808 0.6508 0.8466
C24 C 0.47766(19) 0.6265(2) 0.8302(2)
H24 H 0.4642 0.6268 0.8300
C25 C 0.4866(2) 0.61214(18) 0.8210(2)
C26 C 0.5060(2) 0.6131(2) 0.8204(3)
H26 H 0.5130 0.6044 0.8129
C27 C 0.5156(2) 0.6272(2) 0.8309(3)
H27 H 0.5291 0.6267 0.8315
Zn1 Zn 0.98946(2) 0.77014(2) 0.18967(2)
N1 N 0.95012(12) 0.75630(14) 0.14342(14)
C1 C 0.95954(14) 0.76389(17) 0.15833(16)
H1 H 0.9566 0.7767 0.1613
N2 N 0.97283(12) 0.75514(13) 0.16962(12)
C2 C 0.97555(16) 0.73682(16) 0.16400(18)
C3 C 0.96633(16) 0.72682(17) 0.14825(18)
C4 C 0.95317(19) 0.73683(19) 0.13844(19)
C5 C 0.98642(17) 0.70831(18) 0.16084(17)
H5 H 0.9937 0.6973 0.1636
N4 N 0.98835(13) 0.72442(14) 0.17179(14)
N5 N 0.94332(13) 0.72809(12) 0.12346(15)
H10A H 0.9457 0.7162 0.1205
H10B H 0.9348 0.7345 0.1171
O1 O 1.0000 0.7500 0.20618(13)
C11 C 0.9709(2) 0.8027(2) 0.1955(2)
O11A O 0.97684(16) 0.78896(14) 0.20520(17)
O11B O 0.97244(17) 0.80419(15) 0.17792(16)
C12 C 0.95977(17) 0.81824(18) 0.2061(2)
C13 C 0.9512(2) 0.83283(18) 0.19656(19)
H13 H 0.9518 0.8332 0.1831
C14 C 0.9412(2) 0.84767(19) 0.20649(18)
H14 H 0.9356 0.8578 0.1995
C15 C 0.9395(2) 0.84733(18) 0.22581(19)
C16 C 0.9471(3) 0.8319(2) 0.2348(2)
H16 H 0.9447 0.8303 0.2480
C17 C 0.9584(3) 0.8179(2) 0.2254(2)
H17 H 0.9649 0.8084 0.2325
C21 C 0.8988(2) 0.9070(2) 0.2678(2)
O21B O 0.8996(2) 0.90833(18) 0.28525(14)
C22 C 0.90962(17) 0.89157(17) 0.25668(19)
C23 C 0.9099(2) 0.89123(18) 0.23774(18)
H23 H 0.9034 0.9008 0.2308
C24 C 0.9198(2) 0.8765(2) 0.22766(19)
H24 H 0.9200 0.8768 0.2142
C25 C 0.9290(2) 0.86214(18) 0.2366(2)
C26 C 0.9296(3) 0.8631(2) 0.2560(2)
H26 H 0.9371 0.8544 0.2630
C27 C 0.9191(3) 0.8772(2) 0.2656(2)
H27 H 0.9185 0.8767 0.2791
C31 C 0.9252(2) 0.8048(2) 0.1457(2)
O31A O 0.93832(11) 0.80126(11) 0.13372(14)
O31B O 0.91450(14) 0.79228(12) 0.15138(18)
C32 C 0.92114(16) 0.82589(17) 0.15106(15)
C33 C 0.90605(19) 0.83087(18) 0.16246(18)
H33 H 0.8982 0.8212 0.1676
C34 C 0.90208(19) 0.85018(18) 0.1666(2)
H34A H 0.8915 0.8534 0.1743
C35 C 0.91367(18) 0.86418(16) 0.15948(17)
C36 C 0.92890(17) 0.85932(18) 0.14821(17)
H36A H 0.9369 0.8690 0.1434
C37 C 0.93270(17) 0.84000(16) 0.14380(18)
H37A H 0.9431 0.8368 0.1359
C31 C 0.8957(2) 0.9452(2) 0.1752(2)
O31A O 0.88372(14) 0.94874(11) 0.18832(11)
O31B O 0.90138(18) 0.95772(12) 0.16450(14)
C32 C 0.90106(15) 0.92411(17) 0.17114(16)
C33 C 0.91246(18) 0.91913(18) 0.15605(19)
H33 H 0.9176 0.9288 0.1482
C34 C 0.9166(2) 0.89982(18) 0.15208(19)
H34A H 0.9243 0.8966 0.1415
C35 C 0.90948(17) 0.88582(16) 0.16367(18)
C36 C 0.89821(17) 0.89068(18) 0.17890(17)
H36A H 0.8934 0.8810 0.1869
C37 C 0.89380(18) 0.91000(16) 0.18270(17)
H37A H 0.8859 0.9132 0.1931
Zn1 Zn 0.93967(2) 0.97986(2) 0.23946(2)
N1 N 0.89342(14) 0.99370(14) 0.20012(12)
C1 C 0.90833(16) 0.98611(17) 0.20954(14)
H1 H 0.9113 0.9733 0.2066
N2 N 0.91962(12) 0.99486(13) 0.22283(12)
C2 C 0.91400(18) 1.01318(16) 0.22555(16)
C3 C 0.89825(18) 1.02318(17) 0.21633(16)
C4 C 0.88844(19) 1.01317(19) 0.20317(19)
N3 N 0.89588(15) 1.04166(12) 0.22379(13)
C5 C 0.91084(17) 1.04169(18) 0.23642(17)
H5 H 0.9136 1.0527 0.2437
N4 N 0.92179(14) 1.02558(14) 0.23835(13)
N5 N 0.87346(15) 1.02191(12) 0.19332(13)
H10A H 0.8705 1.0338 0.1957
H10B H 0.8671 1.0155 0.1848
C11 C 0.9455(2) 0.9473(2) 0.2209(2)
O11A O 0.95520(17) 0.96104(14) 0.22684(16)
O11B O 0.92792(16) 0.94581(15) 0.22244(17)
C12 C 0.9561(2) 0.93176(18) 0.20977(17)
C13 C 0.94656(19) 0.91717(18) 0.2012(2)
H13 H 0.9331 0.9168 0.2018
C14 C 0.95649(18) 0.90233(19) 0.1912(2)
H14 H 0.9495 0.8922 0.1856
C15 C 0.97581(19) 0.90267(18) 0.1895(2)
C16 C 0.9848(2) 0.9181(2) 0.1971(3)
H16 H 0.9980 0.9197 0.1947
C17 C 0.9754(2) 0.9321(2) 0.2084(3)
H17 H 0.9825 0.9416 0.2149
C21 C 1.0178(2) 0.8430(2) 0.1488(2)
O21A O 1.00832(11) 0.83232(10) 0.13807(12)
O21B O 1.03525(14) 0.84167(18) 0.1496(2)
C22 C 1.00668(19) 0.85843(17) 0.15962(17)
C23 C 0.98774(18) 0.85877(18) 0.1599(2)
H23 H 0.9808 0.8492 0.1534
C24 C 0.97766(19) 0.8735(2) 0.1698(2)
H24 H 0.9642 0.8732 0.1700
C25 C 0.9866(2) 0.88786(18) 0.1790(2)
C26 C 1.0060(2) 0.8869(2) 0.1796(3)
H26 H 1.0130 0.8956 0.1871
C27 C 1.0156(2) 0.8728(2) 0.1691(3)
H27 H 1.0291 0.8733 0.1685
Zn1 Zn 1.01054(2) 0.72986(2) 0.18967(2)
Zn1 Zn 0.93967(2) 1.02014(2) 0.26054(2)
Zn2 Zn 0.87578(2) 1.063116(18) 0.224604(18)
Zn2 Zn 1.025396(18) 0.813116(18) 0.12578(2)
N3 N 0.95834(12) 0.77621(13) 0.10412(15)
N4 N 1.01165(13) 0.77558(14) 0.17179(14)
N4 N 0.92179(14) 0.97442(14) 0.26165(13)
O1 O 0.95618(13) 1.0000 0.2500
O21A O 0.86193(12) 0.99168(11) 0.16768(10)
N1 N 0.54988(12) 0.24370(14) 0.64342(14)
C1 C 0.54046(14) 0.23611(17) 0.65833(16)
H1 H 0.5434 0.2233 0.6613
N2 N 0.52717(12) 0.24486(13) 0.66962(12)
C2 C 0.52445(16) 0.26318(16) 0.66400(18)
C3 C 0.53367(16) 0.27318(17) 0.64825(18)
C4 C 0.54683(19) 0.26317(19) 0.63844(19)
C5 C 0.51358(17) 0.29169(18) 0.66084(17)
H5 H 0.5063 0.3027 0.6636
N5 N 0.55668(13) 0.27191(12) 0.62346(15)
H10A H 0.5543 0.2838 0.6205
H10B H 0.5652 0.2655 0.6171
C11 C 0.5291(2) 0.1973(2) 0.6955(2)
O11A O 0.52316(16) 0.21104(14) 0.70520(17)
O11B O 0.52756(17) 0.19581(15) 0.67792(16)
C12 C 0.54023(17) 0.18176(18) 0.7061(2)
C13 C 0.5488(2) 0.16717(18) 0.69656(19)
H13 H 0.5482 0.1668 0.6831
C14 C 0.5588(2) 0.15233(19) 0.70649(18)
H14 H 0.5644 0.1422 0.6995
C15 C 0.5605(2) 0.15267(18) 0.72581(19)
C16 C 0.5529(3) 0.1681(2) 0.7348(2)
H16 H 0.5553 0.1697 0.7480
C17 C 0.5416(3) 0.1821(2) 0.7254(2)
H17 H 0.5351 0.1916 0.7325
C21 C 0.6012(2) 0.0930(2) 0.7678(2)
O21B O 0.6004(2) 0.09167(18) 0.78525(14)
C22 C 0.59038(17) 0.10843(17) 0.75668(19)
C23 C 0.5901(2) 0.10877(18) 0.73774(18)
H23 H 0.5966 0.0992 0.7308
C24 C 0.5802(2) 0.1235(2) 0.72766(19)
H24 H 0.5800 0.1232 0.7142
C25 C 0.5710(2) 0.13786(18) 0.7366(2)
C26 C 0.5704(3) 0.1369(2) 0.7560(2)
H26 H 0.5629 0.1456 0.7630
C27 C 0.5809(3) 0.1228(2) 0.7656(2)
H27 H 0.5815 0.1233 0.7791
C31 C 0.5748(2) 0.1952(2) 0.6457(2)
O31A O 0.56168(11) 0.19874(11) 0.63372(14)
O31B O 0.58550(14) 0.20772(12) 0.65138(18)
C32 C 0.57886(16) 0.17411(17) 0.65106(15)
C33 C 0.59395(19) 0.16913(18) 0.66246(18)
H33 H 0.6018 0.1788 0.6676
C34 C 0.59792(19) 0.14982(18) 0.6666(2)
H34A H 0.6085 0.1466 0.6743
C35 C 0.58633(18) 0.13582(16) 0.65948(17)
C36 C 0.57110(17) 0.14068(18) 0.64821(17)
H36A H 0.5631 0.1310 0.6434
C37 C 0.56730(17) 0.16000(16) 0.64380(18)
H37A H 0.5569 0.1632 0.6359
C31 C 0.6043(2) 0.0548(2) 0.6752(2)
O31A O 0.61628(14) 0.05126(11) 0.68832(11)
O31B O 0.59862(18) 0.04228(12) 0.66450(14)
C32 C 0.59894(15) 0.07589(17) 0.67114(16)
C33 C 0.58754(18) 0.08087(18) 0.65605(19)
H33 H 0.5824 0.0712 0.6482
C34 C 0.5834(2) 0.10018(18) 0.65208(19)
H34A H 0.5757 0.1034 0.6415
C35 C 0.59052(17) 0.11418(16) 0.66367(18)
C36 C 0.60179(17) 0.10932(18) 0.67890(17)
H36A H 0.6066 0.1190 0.6869
C37 C 0.60620(18) 0.09000(16) 0.68270(17)
H37A H 0.6141 0.0868 0.6931
Zn1 Zn 0.56033(2) 0.02014(2) 0.73946(2)
N1 N 0.60658(14) 0.00630(14) 0.70012(12)
C1 C 0.59167(16) 0.01389(17) 0.70954(14)
H1 H 0.5887 0.0267 0.7066
N2 N 0.58038(12) 0.00514(13) 0.72283(12)
C2 C 0.58600(18) -0.01318(16) 0.72555(16)
C3 C 0.60175(18) -0.02318(17) 0.71633(16)
C4 C 0.61156(19) -0.01317(19) 0.70317(19)
N3 N 0.60412(15) -0.04166(12) 0.72379(13)
C5 C 0.58916(17) -0.04169(18) 0.73642(17)
H5 H 0.5864 -0.0527 0.7437
N4 N 0.57821(14) -0.02558(14) 0.73835(13)
N5 N 0.62654(15) -0.02191(12) 0.69332(13)
H10A H 0.6295 -0.0338 0.6957
H10B H 0.6329 -0.0155 0.6848
C11 C 0.5545(2) 0.0527(2) 0.7209(2)
O11A O 0.54480(17) 0.03896(14) 0.72684(16)
O11B O 0.57208(16) 0.05419(15) 0.72244(17)
C12 C 0.5439(2) 0.06824(18) 0.70977(17)
C13 C 0.55344(19) 0.08283(18) 0.7012(2)
H13 H 0.5669 0.0832 0.7018
C14 C 0.54351(18) 0.09767(19) 0.6912(2)
H14 H 0.5505 0.1078 0.6856
C15 C 0.52419(19) 0.09733(18) 0.6895(2)
C16 C 0.5152(2) 0.0819(2) 0.6971(3)
H16 H 0.5020 0.0803 0.6947
C17 C 0.5246(2) 0.0679(2) 0.7084(3)
H17 H 0.5175 0.0584 0.7149
C21 C 0.4822(2) 0.1570(2) 0.6488(2)
O21B O 0.46475(14) 0.15833(18) 0.6496(2)
C22 C 0.49332(19) 0.14157(17) 0.65962(17)
C23 C 0.51226(18) 0.14123(18) 0.6599(2)
H23 H 0.5192 0.1508 0.6534
C24 C 0.52234(19) 0.1265(2) 0.6698(2)
H24 H 0.5358 0.1268 0.6700
C25 C 0.5134(2) 0.11214(18) 0.6790(2)
C26 C 0.4940(2) 0.1131(2) 0.6796(3)
H26 H 0.4870 0.1044 0.6871
C27 C 0.4844(2) 0.1272(2) 0.6691(3)
H27 H 0.4709 0.1267 0.6685
Zn1 Zn 0.56033(2) -0.02014(2) 0.76054(2)
Zn2 Zn 0.62422(2) -0.063116(18) 0.724604(18)
N4 N 0.57821(14) 0.02558(14) 0.76165(13)
O1 O 0.54382(13) 0.0000 0.7500
O21A O 0.63807(12) 0.00832(11) 0.66768(10)
Zn1 Zn 0.31033(2) 0.01054(2) 0.27014(2)
N1 N 0.35658(14) 0.04988(12) 0.25630(14)
C1 C 0.34167(16) 0.04046(14) 0.26389(17)
H1 H 0.3387 0.0434 0.2767
N2 N 0.33038(12) 0.02717(12) 0.25514(13)
C2 C 0.33600(18) 0.02445(16) 0.23682(16)
C3 C 0.35175(18) 0.03367(16) 0.22682(17)
C4 C 0.36156(19) 0.04683(19) 0.23683(19)
C5 C 0.33916(17) 0.01358(17) 0.20831(18)
H5 H 0.3364 0.0063 0.1973
N4 N 0.32821(14) 0.01165(13) 0.22442(14)
N5 N 0.37654(15) 0.05668(13) 0.22809(12)
H10A H 0.3795 0.0543 0.2162
H10B H 0.3829 0.0652 0.2345
O1 O 0.29382(13) 0.0000 0.2500
C11 C 0.3045(2) 0.0291(2) 0.3027(2)
O11A O 0.29480(17) 0.02316(16) 0.28896(14)
O11B O 0.32208(16) 0.02756(17) 0.30419(15)
C12 C 0.2939(2) 0.04023(17) 0.31824(18)
C13 C 0.30344(19) 0.0488(2) 0.33283(18)
H13 H 0.3169 0.0482 0.3332
C14 C 0.29351(18) 0.0588(2) 0.34767(19)
H14 H 0.3005 0.0644 0.3578
C15 C 0.27419(19) 0.0605(2) 0.34733(18)
C16 C 0.2652(2) 0.0529(3) 0.3319(2)
H16 H 0.2520 0.0553 0.3303
C17 C 0.2746(2) 0.0416(3) 0.3179(2)
H17 H 0.2675 0.0351 0.3084
C21 C 0.2322(2) 0.1012(2) 0.4070(2)
O21B O 0.21475(14) 0.1004(2) 0.40833(18)
C22 C 0.24332(19) 0.09038(17) 0.39157(17)
C23 C 0.26226(18) 0.0901(2) 0.39123(18)
H23 H 0.2692 0.0966 0.4008
C24 C 0.27234(19) 0.0802(2) 0.3765(2)
H24 H 0.2858 0.0800 0.3768
C25 C 0.2634(2) 0.0710(2) 0.36214(18)
C26 C 0.2440(2) 0.0704(3) 0.3631(2)
H26 H 0.2370 0.0629 0.3544
C27 C 0.2344(2) 0.0809(3) 0.3772(2)
H27 H 0.2209 0.0815 0.3767
C31 C 0.3543(2) 0.0748(2) 0.3048(2)
O31A O 0.36628(14) 0.06168(11) 0.30126(11)
O31B O 0.34862(18) 0.08550(14) 0.29228(12)
C32 C 0.34894(15) 0.07886(16) 0.32589(17)
C33 C 0.33754(18) 0.09395(19) 0.33087(18)
H33 H 0.3324 0.1018 0.3212
C34 C 0.3334(2) 0.09792(19) 0.35018(18)
H34A H 0.3257 0.1085 0.3534
C35 C 0.34052(17) 0.08633(18) 0.36418(16)
C36 C 0.35179(17) 0.07110(17) 0.35932(18)
H36A H 0.3566 0.0631 0.3690
C37 C 0.35620(18) 0.06730(17) 0.34000(16)
H37A H 0.3641 0.0569 0.3368
C31 C 0.3248(2) 0.1043(2) 0.4452(2)
O31A O 0.31168(11) 0.11628(14) 0.44874(11)
O31B O 0.33550(14) 0.09862(18) 0.45772(12)
C32 C 0.32886(16) 0.09894(15) 0.42411(17)
C33 C 0.34395(19) 0.08754(18) 0.41913(18)
H33 H 0.3518 0.0824 0.4288
C34 C 0.34792(19) 0.0834(2) 0.39982(18)
H34A H 0.3585 0.0757 0.3966
C35 C 0.33633(18) 0.09052(17) 0.38582(16)
C36 C 0.32110(17) 0.10179(17) 0.39068(18)
H36A H 0.3131 0.1066 0.3810
C37 C 0.31730(17) 0.10620(18) 0.41000(16)
H37A H 0.3069 0.1141 0.4132
N1 N 0.29988(12) 0.10658(14) 0.49370(14)
C1 C 0.29046(14) 0.09167(16) 0.48611(17)
H1 H 0.2934 0.0887 0.4733
N2 N 0.27717(12) 0.08038(12) 0.49486(13)
C2 C 0.27445(16) 0.08600(18) 0.51318(16)
C3 C 0.28367(16) 0.10175(18) 0.52318(17)
C4 C 0.29683(19) 0.11156(19) 0.51317(19)
C5 C 0.26358(17) 0.08916(17) 0.54169(18)
H5 H 0.2563 0.0864 0.5527
N5 N 0.30668(13) 0.12654(15) 0.52191(12)
H10A H 0.3043 0.1295 0.5338
H10B H 0.3152 0.1329 0.5155
C11 C 0.2791(2) 0.0545(2) 0.4473(2)
O11A O 0.27316(16) 0.04480(17) 0.46104(14)
O11B O 0.27756(17) 0.07208(16) 0.44581(15)
C12 C 0.29023(17) 0.0439(2) 0.43176(18)
C13 C 0.2988(2) 0.05344(19) 0.41717(18)
H13 H 0.2982 0.0669 0.4168
C14 C 0.3088(2) 0.04351(18) 0.40233(19)
H14 H 0.3144 0.0505 0.3922
C15 C 0.3105(2) 0.02419(19) 0.40267(18)
C16 C 0.3029(3) 0.0152(2) 0.4181(2)
H16 H 0.3053 0.0020 0.4197
C17 C 0.2916(3) 0.0246(2) 0.4321(2)
H17 H 0.2851 0.0175 0.4416
C21 C 0.3512(2) -0.0178(2) 0.3430(2)
O21A O 0.36193(12) -0.00832(11) 0.33232(10)
O21B O 0.3504(2) -0.03525(14) 0.34167(18)
C22 C 0.34038(17) -0.00668(19) 0.35843(17)
C23 C 0.3401(2) 0.01226(18) 0.35877(18)
H23 H 0.3466 0.0192 0.3492
C24 C 0.3302(2) 0.02234(19) 0.3735(2)
H24 H 0.3300 0.0358 0.3732
C25 C 0.3210(2) 0.0134(2) 0.38786(18)
C26 C 0.3204(3) -0.0060(2) 0.3869(2)
H26 H 0.3129 -0.0130 0.3956
C27 C 0.3309(3) -0.0156(2) 0.3728(2)
H27 H 0.3315 -0.0291 0.3733
Zn1 Zn 0.31033(2) -0.01054(2) 0.22986(2)
Zn2 Zn 0.37422(2) -0.025396(18) 0.313116(18)
N3 N 0.39588(15) 0.04166(12) 0.27621(13)
N4 N 0.32821(14) -0.01165(13) 0.27558(14)
N1 N 0.85658(14) 0.45012(12) 0.74370(14)
C1 C 0.84167(16) 0.45954(14) 0.73611(17)
H1 H 0.8387 0.4566 0.7233
N2 N 0.83038(12) 0.47283(12) 0.74486(13)
C2 C 0.83600(18) 0.47555(16) 0.76318(16)
C3 C 0.85175(18) 0.46633(16) 0.77318(17)
C4 C 0.86156(19) 0.45317(19) 0.76317(19)
C5 C 0.83916(17) 0.48642(17) 0.79169(18)
H5 H 0.8364 0.4937 0.8027
N5 N 0.87654(15) 0.44332(13) 0.77191(12)
H10A H 0.8795 0.4457 0.7838
H10B H 0.8829 0.4348 0.7655
C11 C 0.8045(2) 0.4709(2) 0.6973(2)
O11A O 0.79480(17) 0.47684(16) 0.71104(14)
O11B O 0.82208(16) 0.47244(17) 0.69581(15)
C12 C 0.7939(2) 0.45977(17) 0.68176(18)
C13 C 0.80344(19) 0.4512(2) 0.66717(18)
H13 H 0.8169 0.4518 0.6668
C14 C 0.79351(18) 0.4412(2) 0.65233(19)
H14 H 0.8005 0.4356 0.6422
C15 C 0.77419(19) 0.4395(2) 0.65267(18)
C16 C 0.7652(2) 0.4471(3) 0.6681(2)
H16 H 0.7520 0.4447 0.6697
C17 C 0.7746(2) 0.4584(3) 0.6821(2)
H17 H 0.7675 0.4649 0.6916
C21 C 0.7322(2) 0.3988(2) 0.5930(2)
O21B O 0.71475(14) 0.3996(2) 0.59167(18)
C22 C 0.74332(19) 0.40962(17) 0.60843(17)
C23 C 0.76226(18) 0.4099(2) 0.60877(18)
H23 H 0.7692 0.4034 0.5992
C24 C 0.77234(19) 0.4198(2) 0.6235(2)
H24 H 0.7858 0.4200 0.6232
C25 C 0.7634(2) 0.4290(2) 0.63786(18)
C26 C 0.7440(2) 0.4296(3) 0.6369(2)
H26 H 0.7370 0.4371 0.6456
C27 C 0.7344(2) 0.4191(3) 0.6228(2)
H27 H 0.7209 0.4185 0.6233
C31 C 0.8543(2) 0.4252(2) 0.6952(2)
O31A O 0.86628(14) 0.43832(11) 0.69874(11)
O31B O 0.84862(18) 0.41450(14) 0.70772(12)
C32 C 0.84894(15) 0.42114(16) 0.67411(17)
C33 C 0.83754(18) 0.40605(19) 0.66913(18)
H33 H 0.8324 0.3982 0.6788
C34 C 0.8334(2) 0.40208(19) 0.64982(18)
H34A H 0.8257 0.3915 0.6466
C35 C 0.84052(17) 0.41367(18) 0.63582(16)
C36 C 0.85179(17) 0.42890(17) 0.64068(18)
H36A H 0.8566 0.4369 0.6310
C37 C 0.85620(18) 0.43270(17) 0.66000(16)
H37A H 0.8641 0.4431 0.6632
C31 C 0.8248(2) 0.3957(2) 0.5548(2)
O31A O 0.81168(11) 0.38372(14) 0.55126(11)
O31B O 0.83550(14) 0.40138(18) 0.54228(12)
C32 C 0.82886(16) 0.40106(15) 0.57589(17)
C33 C 0.84395(19) 0.41246(18) 0.58087(18)
H33 H 0.8518 0.4176 0.5712
C34 C 0.84792(19) 0.4166(2) 0.60018(18)
H34A H 0.8585 0.4243 0.6034
C35 C 0.83633(18) 0.40948(17) 0.61418(16)
C36 C 0.82110(17) 0.39821(17) 0.60932(18)
H36A H 0.8131 0.3934 0.6190
C37 C 0.81730(17) 0.39380(18) 0.59000(16)
H37A H 0.8069 0.3859 0.5868
N1 N 0.79988(12) 0.39342(14) 0.50630(14)
C1 C 0.79046(14) 0.40833(16) 0.51389(17)
H1 H 0.7934 0.4113 0.5267
N2 N 0.77717(12) 0.41962(12) 0.50514(13)
C2 C 0.77445(16) 0.41400(18) 0.48682(16)
C3 C 0.78367(16) 0.39825(18) 0.47682(17)
C4 C 0.79683(19) 0.38844(19) 0.48683(19)
C5 C 0.76358(17) 0.41084(17) 0.45831(18)
H5 H 0.7563 0.4136 0.4473
N5 N 0.80668(13) 0.37346(15) 0.47809(12)
H10A H 0.8043 0.3705 0.4662
H10B H 0.8152 0.3671 0.4845
C11 C 0.7791(2) 0.4455(2) 0.5527(2)
O11A O 0.77316(16) 0.45520(17) 0.53896(14)
O11B O 0.77756(17) 0.42792(16) 0.55419(15)
C12 C 0.79023(17) 0.4561(2) 0.56824(18)
C13 C 0.7988(2) 0.44656(19) 0.58283(18)
H13 H 0.7982 0.4331 0.5832
C14 C 0.8088(2) 0.45649(18) 0.59767(19)
H14 H 0.8144 0.4495 0.6078
C15 C 0.8105(2) 0.47581(19) 0.59733(18)
C16 C 0.8029(3) 0.4848(2) 0.5819(2)
H16 H 0.8053 0.4980 0.5803
C17 C 0.7916(3) 0.4754(2) 0.5679(2)
H17 H 0.7851 0.4825 0.5584
C21 C 0.8512(2) 0.5178(2) 0.6570(2)
O21B O 0.8504(2) 0.53525(14) 0.65833(18)
C22 C 0.84038(17) 0.50668(19) 0.64157(17)
C23 C 0.8401(2) 0.48774(18) 0.64123(18)
H23 H 0.8466 0.4808 0.6508
C24 C 0.8302(2) 0.47766(19) 0.6265(2)
H24 H 0.8300 0.4642 0.6268
C25 C 0.8210(2) 0.4866(2) 0.61214(18)
C26 C 0.8204(3) 0.5060(2) 0.6131(2)
H26 H 0.8129 0.5130 0.6044
C27 C 0.8309(3) 0.5156(2) 0.6272(2)
H27 H 0.8315 0.5291 0.6267
Zn1 Zn 0.18967(2) 0.98946(2) 0.77014(2)
N1 N 0.14342(14) 0.95012(12) 0.75630(14)
C1 C 0.15833(16) 0.95954(14) 0.76389(17)
H1 H 0.1613 0.9566 0.7767
N2 N 0.16962(12) 0.97283(12) 0.75514(13)
C2 C 0.16400(18) 0.97555(16) 0.73682(16)
C3 C 0.14825(18) 0.96633(16) 0.72682(17)
C4 C 0.13844(19) 0.95317(19) 0.73683(19)
C5 C 0.16084(17) 0.98642(17) 0.70831(18)
H5 H 0.1636 0.9937 0.6973
N4 N 0.17179(14) 0.98835(13) 0.72442(14)
N5 N 0.12346(15) 0.94332(13) 0.72809(12)
H10A H 0.1205 0.9457 0.7162
H10B H 0.1171 0.9348 0.7345
O1 O 0.20618(13) 1.0000 0.7500
C11 C 0.1955(2) 0.9709(2) 0.8027(2)
O11A O 0.20520(17) 0.97684(16) 0.78896(14)
O11B O 0.17792(16) 0.97244(17) 0.80419(15)
C12 C 0.2061(2) 0.95977(17) 0.81824(18)
C13 C 0.19656(19) 0.9512(2) 0.83283(18)
H13 H 0.1831 0.9518 0.8332
C14 C 0.20649(18) 0.9412(2) 0.84767(19)
H14 H 0.1995 0.9356 0.8578
C15 C 0.22581(19) 0.9395(2) 0.84733(18)
C16 C 0.2348(2) 0.9471(3) 0.8319(2)
H16 H 0.2480 0.9447 0.8303
C17 C 0.2254(2) 0.9584(3) 0.8179(2)
H17 H 0.2325 0.9649 0.8084
C21 C 0.2678(2) 0.8988(2) 0.9070(2)
O21B O 0.28525(14) 0.8996(2) 0.90833(18)
C22 C 0.25668(19) 0.90962(17) 0.89157(17)
C23 C 0.23774(18) 0.9099(2) 0.89123(18)
H23 H 0.2308 0.9034 0.9008
C24 C 0.22766(19) 0.9198(2) 0.8765(2)
H24 H 0.2142 0.9200 0.8768
C25 C 0.2366(2) 0.9290(2) 0.86214(18)
C26 C 0.2560(2) 0.9296(3) 0.8631(2)
H26 H 0.2630 0.9371 0.8544
C27 C 0.2656(2) 0.9191(3) 0.8772(2)
H27 H 0.2791 0.9185 0.8767
C31 C 0.1457(2) 0.9252(2) 0.8048(2)
O31A O 0.13372(14) 0.93832(11) 0.80126(11)
O31B O 0.15138(18) 0.91450(14) 0.79228(12)
C32 C 0.15106(15) 0.92114(16) 0.82589(17)
C33 C 0.16246(18) 0.90605(19) 0.83087(18)
H33 H 0.1676 0.8982 0.8212
C34 C 0.1666(2) 0.90208(19) 0.85018(18)
H34A H 0.1743 0.8915 0.8534
C35 C 0.15948(17) 0.91367(18) 0.86418(16)
C36 C 0.14821(17) 0.92890(17) 0.85932(18)
H36A H 0.1434 0.9369 0.8690
C37 C 0.14380(18) 0.93270(17) 0.84000(16)
H37A H 0.1359 0.9431 0.8368
C31 C 0.1752(2) 0.8957(2) 0.9452(2)
O31A O 0.18832(11) 0.88372(14) 0.94874(11)
O31B O 0.16450(14) 0.90138(18) 0.95772(12)
C32 C 0.17114(16) 0.90106(15) 0.92411(17)
C33 C 0.15605(19) 0.91246(18) 0.91913(18)
H33 H 0.1482 0.9176 0.9288
C34 C 0.15208(19) 0.9166(2) 0.89982(18)
H34A H 0.1415 0.9243 0.8966
C35 C 0.16367(18) 0.90948(17) 0.88582(16)
C36 C 0.17890(17) 0.89821(17) 0.89068(18)
H36A H 0.1869 0.8934 0.8810
C37 C 0.18270(17) 0.89380(18) 0.91000(16)
H37A H 0.1931 0.8859 0.9132
Zn1 Zn 0.23946(2) 0.93967(2) 0.97986(2)
N1 N 0.20012(12) 0.89342(14) 0.99370(14)
C1 C 0.20954(14) 0.90833(16) 0.98611(17)
H1 H 0.2066 0.9113 0.9733
N2 N 0.22283(12) 0.91962(12) 0.99486(13)
C2 C 0.22555(16) 0.91400(18) 1.01318(16)
C3 C 0.21633(16) 0.89825(18) 1.02318(17)
C4 C 0.20317(19) 0.88844(19) 1.01317(19)
N3 N 0.22379(13) 0.89588(15) 1.04166(12)
C5 C 0.23642(17) 0.91084(17) 1.04169(18)
H5 H 0.2437 0.9136 1.0527
N4 N 0.23835(13) 0.92179(14) 1.02558(14)
N5 N 0.19332(13) 0.87346(15) 1.02191(12)
H10A H 0.1957 0.8705 1.0338
H10B H 0.1848 0.8671 1.0155
C11 C 0.2209(2) 0.9455(2) 0.9473(2)
O11A O 0.22684(16) 0.95520(17) 0.96104(14)
O11B O 0.22244(17) 0.92792(16) 0.94581(15)
C12 C 0.20977(17) 0.9561(2) 0.93176(18)
C13 C 0.2012(2) 0.94656(19) 0.91717(18)
H13 H 0.2018 0.9331 0.9168
C14 C 0.1912(2) 0.95649(18) 0.90233(19)
H14 H 0.1856 0.9495 0.8922
C15 C 0.1895(2) 0.97581(19) 0.90267(18)
C16 C 0.1971(3) 0.9848(2) 0.9181(2)
H16 H 0.1947 0.9980 0.9197
C17 C 0.2084(3) 0.9754(2) 0.9321(2)
H17 H 0.2149 0.9825 0.9416
C21 C 0.1488(2) 1.0178(2) 0.8430(2)
O21A O 0.13807(12) 1.00832(11) 0.83232(10)
O21B O 0.1496(2) 1.03525(14) 0.84167(18)
C22 C 0.15962(17) 1.00668(19) 0.85843(17)
C23 C 0.1599(2) 0.98774(18) 0.85877(18)
H23 H 0.1534 0.9808 0.8492
C24 C 0.1698(2) 0.97766(19) 0.8735(2)
H24 H 0.1700 0.9642 0.8732
C25 C 0.1790(2) 0.9866(2) 0.88786(18)
C26 C 0.1796(3) 1.0060(2) 0.8869(2)
H26 H 0.1871 1.0130 0.8956
C27 C 0.1691(3) 1.0156(2) 0.8728(2)
H27 H 0.1685 1.0291 0.8733
Zn1 Zn 0.18967(2) 1.01054(2) 0.72986(2)
Zn1 Zn 0.26054(2) 0.93967(2) 1.02014(2)
Zn2 Zn 0.224604(18) 0.87578(2) 1.063116(18)
Zn2 Zn 0.12578(2) 1.025396(18) 0.813116(18)
N3 N 0.10412(15) 0.95834(12) 0.77621(13)
N4 N 0.17179(14) 1.01165(13) 0.77558(14)
N4 N 0.26165(13) 0.92179(14) 0.97442(14)
O1 O 0.2500 0.95618(13) 1.0000
O21A O 0.16768(10) 0.86193(12) 0.99168(11)
N1 N 0.64342(14) 0.54988(12) 0.24370(14)
C1 C 0.65833(16) 0.54046(14) 0.23611(17)
H1 H 0.6613 0.5434 0.2233
N2 N 0.66962(12) 0.52717(12) 0.24486(13)
C2 C 0.66400(18) 0.52445(16) 0.26318(16)
C3 C 0.64825(18) 0.53367(16) 0.27318(17)
C4 C 0.63844(19) 0.54683(19) 0.26317(19)
C5 C 0.66084(17) 0.51358(17) 0.29169(18)
H5 H 0.6636 0.5063 0.3027
N5 N 0.62346(15) 0.55668(13) 0.27191(12)
H10A H 0.6205 0.5543 0.2838
H10B H 0.6171 0.5652 0.2655
C11 C 0.6955(2) 0.5291(2) 0.1973(2)
O11A O 0.70520(17) 0.52316(16) 0.21104(14)
O11B O 0.67792(16) 0.52756(17) 0.19581(15)
C12 C 0.7061(2) 0.54023(17) 0.18176(18)
C13 C 0.69656(19) 0.5488(2) 0.16717(18)
H13 H 0.6831 0.5482 0.1668
C14 C 0.70649(18) 0.5588(2) 0.15233(19)
H14 H 0.6995 0.5644 0.1422
C15 C 0.72581(19) 0.5605(2) 0.15267(18)
C16 C 0.7348(2) 0.5529(3) 0.1681(2)
H16 H 0.7480 0.5553 0.1697
C17 C 0.7254(2) 0.5416(3) 0.1821(2)
H17 H 0.7325 0.5351 0.1916
C21 C 0.7678(2) 0.6012(2) 0.0930(2)
O21B O 0.78525(14) 0.6004(2) 0.09167(18)
C22 C 0.75668(19) 0.59038(17) 0.10843(17)
C23 C 0.73774(18) 0.5901(2) 0.10877(18)
H23 H 0.7308 0.5966 0.0992
C24 C 0.72766(19) 0.5802(2) 0.1235(2)
H24 H 0.7142 0.5800 0.1232
C25 C 0.7366(2) 0.5710(2) 0.13786(18)
C26 C 0.7560(2) 0.5704(3) 0.1369(2)
H26 H 0.7630 0.5629 0.1456
C27 C 0.7656(2) 0.5809(3) 0.1228(2)
H27 H 0.7791 0.5815 0.1233
C31 C 0.6457(2) 0.5748(2) 0.1952(2)
O31A O 0.63372(14) 0.56168(11) 0.19874(11)
O31B O 0.65138(18) 0.58550(14) 0.20772(12)
C32 C 0.65106(15) 0.57886(16) 0.17411(17)
C33 C 0.66246(18) 0.59395(19) 0.16913(18)
H33 H 0.6676 0.6018 0.1788
C34 C 0.6666(2) 0.59792(19) 0.14982(18)
H34A H 0.6743 0.6085 0.1466
C35 C 0.65948(17) 0.58633(18) 0.13582(16)
C36 C 0.64821(17) 0.57110(17) 0.14068(18)
H36A H 0.6434 0.5631 0.1310
C37 C 0.64380(18) 0.56730(17) 0.16000(16)
H37A H 0.6359 0.5569 0.1632
C31 C 0.6752(2) 0.6043(2) 0.0548(2)
O31A O 0.68832(11) 0.61628(14) 0.05126(11)
O31B O 0.66450(14) 0.59862(18) 0.04228(12)
C32 C 0.67114(16) 0.59894(15) 0.07589(17)
C33 C 0.65605(19) 0.58754(18) 0.08087(18)
H33 H 0.6482 0.5824 0.0712
C34 C 0.65208(19) 0.5834(2) 0.10018(18)
H34A H 0.6415 0.5757 0.1034
C35 C 0.66367(18) 0.59052(17) 0.11418(16)
C36 C 0.67890(17) 0.60179(17) 0.10932(18)
H36A H 0.6869 0.6066 0.1190
C37 C 0.68270(17) 0.60620(18) 0.09000(16)
H37A H 0.6931 0.6141 0.0868
Zn1 Zn 0.73946(2) 0.56033(2) 0.02014(2)
N1 N 0.70012(12) 0.60658(14) 0.00630(14)
C1 C 0.70954(14) 0.59167(16) 0.01389(17)
H1 H 0.7066 0.5887 0.0267
N2 N 0.72283(12) 0.58038(12) 0.00514(13)
C2 C 0.72555(16) 0.58600(18) -0.01318(16)
C3 C 0.71633(16) 0.60175(18) -0.02318(17)
C4 C 0.70317(19) 0.61156(19) -0.01317(19)
N3 N 0.72379(13) 0.60412(15) -0.04166(12)
C5 C 0.73642(17) 0.58916(17) -0.04169(18)
H5 H 0.7437 0.5864 -0.0527
N4 N 0.73835(13) 0.57821(14) -0.02558(14)
N5 N 0.69332(13) 0.62654(15) -0.02191(12)
H10A H 0.6957 0.6295 -0.0338
H10B H 0.6848 0.6329 -0.0155
C11 C 0.7209(2) 0.5545(2) 0.0527(2)
O11A O 0.72684(16) 0.54480(17) 0.03896(14)
O11B O 0.72244(17) 0.57208(16) 0.05419(15)
C12 C 0.70977(17) 0.5439(2) 0.06824(18)
C13 C 0.7012(2) 0.55344(19) 0.08283(18)
H13 H 0.7018 0.5669 0.0832
C14 C 0.6912(2) 0.54351(18) 0.09767(19)
H14 H 0.6856 0.5505 0.1078
C15 C 0.6895(2) 0.52419(19) 0.09733(18)
C16 C 0.6971(3) 0.5152(2) 0.0819(2)
H16 H 0.6947 0.5020 0.0803
C17 C 0.7084(3) 0.5246(2) 0.0679(2)
H17 H 0.7149 0.5175 0.0584
C21 C 0.6488(2) 0.4822(2) 0.1570(2)
O21B O 0.6496(2) 0.46475(14) 0.15833(18)
C22 C 0.65962(17) 0.49332(19) 0.14157(17)
C23 C 0.6599(2) 0.51226(18) 0.14123(18)
H23 H 0.6534 0.5192 0.1508
C24 C 0.6698(2) 0.52234(19) 0.1265(2)
H24 H 0.6700 0.5358 0.1268
C25 C 0.6790(2) 0.5134(2) 0.11214(18)
C26 C 0.6796(3) 0.4940(2) 0.1131(2)
H26 H 0.6871 0.4870 0.1044
C27 C 0.6691(3) 0.4844(2) 0.1272(2)
H27 H 0.6685 0.4709 0.1267
Zn1 Zn 0.76054(2) 0.56033(2) -0.02014(2)
Zn2 Zn 0.724604(18) 0.62422(2) -0.063116(18)
N4 N 0.76165(13) 0.57821(14) 0.02558(14)
O1 O 0.7500 0.54382(13) 0.0000
O21A O 0.66768(10) 0.63807(12) 0.00832(11)
Zn1 Zn 0.27014(2) 0.31033(2) 0.01054(2)
N1 N 0.25630(14) 0.35658(14) 0.04988(12)
C1 C 0.26389(17) 0.34167(16) 0.04046(14)
H1 H 0.2767 0.3387 0.0434
N2 N 0.25514(13) 0.33038(12) 0.02717(12)
C2 C 0.23682(16) 0.33600(18) 0.02445(16)
C3 C 0.22682(17) 0.35175(18) 0.03367(16)
C4 C 0.23683(19) 0.36156(19) 0.04683(19)
C5 C 0.20831(18) 0.33916(17) 0.01358(17)
H5 H 0.1973 0.3364 0.0063
N4 N 0.22442(14) 0.32821(14) 0.01165(13)
N5 N 0.22809(12) 0.37654(15) 0.05668(13)
H10A H 0.2162 0.3795 0.0543
H10B H 0.2345 0.3829 0.0652
O1 O 0.2500 0.29382(13) 0.0000
C11 C 0.3027(2) 0.3045(2) 0.0291(2)
O11A O 0.28896(14) 0.29480(17) 0.02316(16)
O11B O 0.30419(15) 0.32208(16) 0.02756(17)
C12 C 0.31824(18) 0.2939(2) 0.04023(17)
C13 C 0.33283(18) 0.30344(19) 0.0488(2)
H13 H 0.3332 0.3169 0.0482
C14 C 0.34767(19) 0.29351(18) 0.0588(2)
H14 H 0.3578 0.3005 0.0644
C15 C 0.34733(18) 0.27419(19) 0.0605(2)
C16 C 0.3319(2) 0.2652(2) 0.0529(3)
H16 H 0.3303 0.2520 0.0553
C17 C 0.3179(2) 0.2746(2) 0.0416(3)
H17 H 0.3084 0.2675 0.0351
C21 C 0.4070(2) 0.2322(2) 0.1012(2)
O21B O 0.40833(18) 0.21475(14) 0.1004(2)
C22 C 0.39157(17) 0.24332(19) 0.09038(17)
C23 C 0.39123(18) 0.26226(18) 0.0901(2)
H23 H 0.4008 0.2692 0.0966
C24 C 0.3765(2) 0.27234(19) 0.0802(2)
H24 H 0.3768 0.2858 0.0800
C25 C 0.36214(18) 0.2634(2) 0.0710(2)
C26 C 0.3631(2) 0.2440(2) 0.0704(3)
H26 H 0.3544 0.2370 0.0629
C27 C 0.3772(2) 0.2344(2) 0.0809(3)
H27 H 0.3767 0.2209 0.0815
C31 C 0.3048(2) 0.3543(2) 0.0748(2)
O31A O 0.30126(11) 0.36628(14) 0.06168(11)
O31B O 0.29228(12) 0.34862(18) 0.08550(14)
C32 C 0.32589(17) 0.34894(15) 0.07886(16)
C33 C 0.33087(18) 0.33754(18) 0.09395(19)
H33 H 0.3212 0.3324 0.1018
C34 C 0.35018(18) 0.3334(2) 0.09792(19)
H34A H 0.3534 0.3257 0.1085
C35 C 0.36418(16) 0.34052(17) 0.08633(18)
C36 C 0.35932(18) 0.35179(17) 0.07110(17)
H36A H 0.3690 0.3566 0.0631
C37 C 0.34000(16) 0.35620(18) 0.06730(17)
H37A H 0.3368 0.3641 0.0569
C31 C 0.4452(2) 0.3248(2) 0.1043(2)
O31A O 0.44874(11) 0.31168(11) 0.11628(14)
O31B O 0.45772(12) 0.33550(14) 0.09862(18)
C32 C 0.42411(17) 0.32886(16) 0.09894(15)
C33 C 0.41913(18) 0.34395(19) 0.08754(18)
H33 H 0.4288 0.3518 0.0824
C34 C 0.39982(18) 0.34792(19) 0.0834(2)
H34A H 0.3966 0.3585 0.0757
C35 C 0.38582(16) 0.33633(18) 0.09052(17)
C36 C 0.39068(18) 0.32110(17) 0.10179(17)
H36A H 0.3810 0.3131 0.1066
C37 C 0.41000(16) 0.31730(17) 0.10620(18)
H37A H 0.4132 0.3069 0.1141
N1 N 0.49370(14) 0.29988(12) 0.10658(14)
C1 C 0.48611(17) 0.29046(14) 0.09167(16)
H1 H 0.4733 0.2934 0.0887
N2 N 0.49486(13) 0.27717(12) 0.08038(12)
C2 C 0.51318(16) 0.27445(16) 0.08600(18)
C3 C 0.52318(17) 0.28367(16) 0.10175(18)
C4 C 0.51317(19) 0.29683(19) 0.11156(19)
C5 C 0.54169(18) 0.26358(17) 0.08916(17)
H5 H 0.5527 0.2563 0.0864
N5 N 0.52191(12) 0.30668(13) 0.12654(15)
H10A H 0.5338 0.3043 0.1295
H10B H 0.5155 0.3152 0.1329
C11 C 0.4473(2) 0.2791(2) 0.0545(2)
O11A O 0.46104(14) 0.27316(16) 0.04480(17)
O11B O 0.44581(15) 0.27756(17) 0.07208(16)
C12 C 0.43176(18) 0.29023(17) 0.0439(2)
C13 C 0.41717(18) 0.2988(2) 0.05344(19)
H13 H 0.4168 0.2982 0.0669
C14 C 0.40233(19) 0.3088(2) 0.04351(18)
H14 H 0.3922 0.3144 0.0505
C15 C 0.40267(18) 0.3105(2) 0.02419(19)
C16 C 0.4181(2) 0.3029(3) 0.0152(2)
H16 H 0.4197 0.3053 0.0020
C17 C 0.4321(2) 0.2916(3) 0.0246(2)
H17 H 0.4416 0.2851 0.0175
C21 C 0.3430(2) 0.3512(2) -0.0178(2)
O21A O 0.33232(10) 0.36193(12) -0.00832(11)
O21B O 0.34167(18) 0.3504(2) -0.03525(14)
C22 C 0.35843(17) 0.34038(17) -0.00668(19)
C23 C 0.35877(18) 0.3401(2) 0.01226(18)
H23 H 0.3492 0.3466 0.0192
C24 C 0.3735(2) 0.3302(2) 0.02234(19)
H24 H 0.3732 0.3300 0.0358
C25 C 0.38786(18) 0.3210(2) 0.0134(2)
C26 C 0.3869(2) 0.3204(3) -0.0060(2)
H26 H 0.3956 0.3129 -0.0130
C27 C 0.3728(2) 0.3309(3) -0.0156(2)
H27 H 0.3733 0.3315 -0.0291
Zn1 Zn 0.22986(2) 0.31033(2) -0.01054(2)
Zn2 Zn 0.313116(18) 0.37422(2) -0.025396(18)
N3 N 0.27621(13) 0.39588(15) 0.04166(12)
N4 N 0.27558(14) 0.32821(14) -0.01165(13)
N1 N 0.74370(14) 0.85658(14) 0.45012(12)
C1 C 0.73611(17) 0.84167(16) 0.45954(14)
H1 H 0.7233 0.8387 0.4566
N2 N 0.74486(13) 0.83038(12) 0.47283(12)
C2 C 0.76318(16) 0.83600(18) 0.47555(16)
C3 C 0.77318(17) 0.85175(18) 0.46633(16)
C4 C 0.76317(19) 0.86156(19) 0.45317(19)
C5 C 0.79169(18) 0.83916(17) 0.48642(17)
H5 H 0.8027 0.8364 0.4937
N5 N 0.77191(12) 0.87654(15) 0.44332(13)
H10A H 0.7838 0.8795 0.4457
H10B H 0.7655 0.8829 0.4348
C11 C 0.6973(2) 0.8045(2) 0.4709(2)
O11A O 0.71104(14) 0.79480(17) 0.47684(16)
O11B O 0.69581(15) 0.82208(16) 0.47244(17)
C12 C 0.68176(18) 0.7939(2) 0.45977(17)
C13 C 0.66717(18) 0.80344(19) 0.4512(2)
H13 H 0.6668 0.8169 0.4518
C14 C 0.65233(19) 0.79351(18) 0.4412(2)
H14 H 0.6422 0.8005 0.4356
C15 C 0.65267(18) 0.77419(19) 0.4395(2)
C16 C 0.6681(2) 0.7652(2) 0.4471(3)
H16 H 0.6697 0.7520 0.4447
C17 C 0.6821(2) 0.7746(2) 0.4584(3)
H17 H 0.6916 0.7675 0.4649
C21 C 0.5930(2) 0.7322(2) 0.3988(2)
O21B O 0.59167(18) 0.71475(14) 0.3996(2)
C22 C 0.60843(17) 0.74332(19) 0.40962(17)
C23 C 0.60877(18) 0.76226(18) 0.4099(2)
H23 H 0.5992 0.7692 0.4034
C24 C 0.6235(2) 0.77234(19) 0.4198(2)
H24 H 0.6232 0.7858 0.4200
C25 C 0.63786(18) 0.7634(2) 0.4290(2)
C26 C 0.6369(2) 0.7440(2) 0.4296(3)
H26 H 0.6456 0.7370 0.4371
C27 C 0.6228(2) 0.7344(2) 0.4191(3)
H27 H 0.6233 0.7209 0.4185
C31 C 0.6952(2) 0.8543(2) 0.4252(2)
O31A O 0.69874(11) 0.86628(14) 0.43832(11)
O31B O 0.70772(12) 0.84862(18) 0.41450(14)
C32 C 0.67411(17) 0.84894(15) 0.42114(16)
C33 C 0.66913(18) 0.83754(18) 0.40605(19)
H33 H 0.6788 0.8324 0.3982
C34 C 0.64982(18) 0.8334(2) 0.40208(19)
H34A H 0.6466 0.8257 0.3915
C35 C 0.63582(16) 0.84052(17) 0.41367(18)
C36 C 0.64068(18) 0.85179(17) 0.42890(17)
H36A H 0.6310 0.8566 0.4369
C37 C 0.66000(16) 0.85620(18) 0.43270(17)
H37A H 0.6632 0.8641 0.4431
C31 C 0.5548(2) 0.8248(2) 0.3957(2)
O31A O 0.55126(11) 0.81168(11) 0.38372(14)
O31B O 0.54228(12) 0.83550(14) 0.40138(18)
C32 C 0.57589(17) 0.82886(16) 0.40106(15)
C33 C 0.58087(18) 0.84395(19) 0.41246(18)
H33 H 0.5712 0.8518 0.4176
C34 C 0.60018(18) 0.84792(19) 0.4166(2)
H34A H 0.6034 0.8585 0.4243
C35 C 0.61418(16) 0.83633(18) 0.40948(17)
C36 C 0.60932(18) 0.82110(17) 0.39821(17)
H36A H 0.6190 0.8131 0.3934
C37 C 0.59000(16) 0.81730(17) 0.39380(18)
H37A H 0.5868 0.8069 0.3859
N1 N 0.50630(14) 0.79988(12) 0.39342(14)
C1 C 0.51389(17) 0.79046(14) 0.40833(16)
H1 H 0.5267 0.7934 0.4113
N2 N 0.50514(13) 0.77717(12) 0.41962(12)
C2 C 0.48682(16) 0.77445(16) 0.41400(18)
C3 C 0.47682(17) 0.78367(16) 0.39825(18)
C4 C 0.48683(19) 0.79683(19) 0.38844(19)
C5 C 0.45831(18) 0.76358(17) 0.41084(17)
H5 H 0.4473 0.7563 0.4136
N5 N 0.47809(12) 0.80668(13) 0.37346(15)
H10A H 0.4662 0.8043 0.3705
H10B H 0.4845 0.8152 0.3671
C11 C 0.5527(2) 0.7791(2) 0.4455(2)
O11A O 0.53896(14) 0.77316(16) 0.45520(17)
O11B O 0.55419(15) 0.77756(17) 0.42792(16)
C12 C 0.56824(18) 0.79023(17) 0.4561(2)
C13 C 0.58283(18) 0.7988(2) 0.44656(19)
H13 H 0.5832 0.7982 0.4331
C14 C 0.59767(19) 0.8088(2) 0.45649(18)
H14 H 0.6078 0.8144 0.4495
C15 C 0.59733(18) 0.8105(2) 0.47581(19)
C16 C 0.5819(2) 0.8029(3) 0.4848(2)
H16 H 0.5803 0.8053 0.4980
C17 C 0.5679(2) 0.7916(3) 0.4754(2)
H17 H 0.5584 0.7851 0.4825
C21 C 0.6570(2) 0.8512(2) 0.5178(2)
O21B O 0.65833(18) 0.8504(2) 0.53525(14)
C22 C 0.64157(17) 0.84038(17) 0.50668(19)
C23 C 0.64123(18) 0.8401(2) 0.48774(18)
H23 H 0.6508 0.8466 0.4808
C24 C 0.6265(2) 0.8302(2) 0.47766(19)
H24 H 0.6268 0.8300 0.4642
C25 C 0.61214(18) 0.8210(2) 0.4866(2)
C26 C 0.6131(2) 0.8204(3) 0.5060(2)
H26 H 0.6044 0.8129 0.5130
C27 C 0.6272(2) 0.8309(3) 0.5156(2)
H27 H 0.6267 0.8315 0.5291
Zn1 Zn 0.77014(2) 0.18967(2) 0.98946(2)
N1 N 0.75630(14) 0.14342(14) 0.95012(12)
C1 C 0.76389(17) 0.15833(16) 0.95954(14)
H1 H 0.7767 0.1613 0.9566
N2 N 0.75514(13) 0.16962(12) 0.97283(12)
C2 C 0.73682(16) 0.16400(18) 0.97555(16)
C3 C 0.72682(17) 0.14825(18) 0.96633(16)
C4 C 0.73683(19) 0.13844(19) 0.95317(19)
C5 C 0.70831(18) 0.16084(17) 0.98642(17)
H5 H 0.6973 0.1636 0.9937
N4 N 0.72442(14) 0.17179(14) 0.98835(13)
N5 N 0.72809(12) 0.12346(15) 0.94332(13)
H10A H 0.7162 0.1205 0.9457
H10B H 0.7345 0.1171 0.9348
O1 O 0.7500 0.20618(13) 1.0000
C11 C 0.8027(2) 0.1955(2) 0.9709(2)
O11A O 0.78896(14) 0.20520(17) 0.97684(16)
O11B O 0.80419(15) 0.17792(16) 0.97244(17)
C12 C 0.81824(18) 0.2061(2) 0.95977(17)
C13 C 0.83283(18) 0.19656(19) 0.9512(2)
H13 H 0.8332 0.1831 0.9518
C14 C 0.84767(19) 0.20649(18) 0.9412(2)
H14 H 0.8578 0.1995 0.9356
C15 C 0.84733(18) 0.22581(19) 0.9395(2)
C16 C 0.8319(2) 0.2348(2) 0.9471(3)
H16 H 0.8303 0.2480 0.9447
C17 C 0.8179(2) 0.2254(2) 0.9584(3)
H17 H 0.8084 0.2325 0.9649
C21 C 0.9070(2) 0.2678(2) 0.8988(2)
O21B O 0.90833(18) 0.28525(14) 0.8996(2)
C22 C 0.89157(17) 0.25668(19) 0.90962(17)
C23 C 0.89123(18) 0.23774(18) 0.9099(2)
H23 H 0.9008 0.2308 0.9034
C24 C 0.8765(2) 0.22766(19) 0.9198(2)
H24 H 0.8768 0.2142 0.9200
C25 C 0.86214(18) 0.2366(2) 0.9290(2)
C26 C 0.8631(2) 0.2560(2) 0.9296(3)
H26 H 0.8544 0.2630 0.9371
C27 C 0.8772(2) 0.2656(2) 0.9191(3)
H27 H 0.8767 0.2791 0.9185
C31 C 0.8048(2) 0.1457(2) 0.9252(2)
O31A O 0.80126(11) 0.13372(14) 0.93832(11)
O31B O 0.79228(12) 0.15138(18) 0.91450(14)
C32 C 0.82589(17) 0.15106(15) 0.92114(16)
C33 C 0.83087(18) 0.16246(18) 0.90605(19)
H33 H 0.8212 0.1676 0.8982
C34 C 0.85018(18) 0.1666(2) 0.90208(19)
H34A H 0.8534 0.1743 0.8915
C35 C 0.86418(16) 0.15948(17) 0.91367(18)
C36 C 0.85932(18) 0.14821(17) 0.92890(17)
H36A H 0.8690 0.1434 0.9369
C37 C 0.84000(16) 0.14380(18) 0.93270(17)
H37A H 0.8368 0.1359 0.9431
C31 C 0.9452(2) 0.1752(2) 0.8957(2)
O31A O 0.94874(11) 0.18832(11) 0.88372(14)
O31B O 0.95772(12) 0.16450(14) 0.90138(18)
C32 C 0.92411(17) 0.17114(16) 0.90106(15)
C33 C 0.91913(18) 0.15605(19) 0.91246(18)
H33 H 0.9288 0.1482 0.9176
C34 C 0.89982(18) 0.15208(19) 0.9166(2)
H34A H 0.8966 0.1415 0.9243
C35 C 0.88582(16) 0.16367(18) 0.90948(17)
C36 C 0.89068(18) 0.17890(17) 0.89821(17)
H36A H 0.8810 0.1869 0.8934
C37 C 0.91000(16) 0.18270(17) 0.89380(18)
H37A H 0.9132 0.1931 0.8859
Zn1 Zn 0.97986(2) 0.23946(2) 0.93967(2)
N1 N 0.99370(14) 0.20012(12) 0.89342(14)
C1 C 0.98611(17) 0.20954(14) 0.90833(16)
H1 H 0.9733 0.2066 0.9113
N2 N 0.99486(13) 0.22283(12) 0.91962(12)
C2 C 1.01318(16) 0.22555(16) 0.91400(18)
C3 C 1.02318(17) 0.21633(16) 0.89825(18)
C4 C 1.01317(19) 0.20317(19) 0.88844(19)
N3 N 1.04166(12) 0.22379(13) 0.89588(15)
C5 C 1.04169(18) 0.23642(17) 0.91084(17)
H5 H 1.0527 0.2437 0.9136
N4 N 1.02558(14) 0.23835(13) 0.92179(14)
N5 N 1.02191(12) 0.19332(13) 0.87346(15)
H10A H 1.0338 0.1957 0.8705
H10B H 1.0155 0.1848 0.8671
C11 C 0.9473(2) 0.2209(2) 0.9455(2)
O11A O 0.96104(14) 0.22684(16) 0.95520(17)
O11B O 0.94581(15) 0.22244(17) 0.92792(16)
C12 C 0.93176(18) 0.20977(17) 0.9561(2)
C13 C 0.91717(18) 0.2012(2) 0.94656(19)
H13 H 0.9168 0.2018 0.9331
C14 C 0.90233(19) 0.1912(2) 0.95649(18)
H14 H 0.8922 0.1856 0.9495
C15 C 0.90267(18) 0.1895(2) 0.97581(19)
C16 C 0.9181(2) 0.1971(3) 0.9848(2)
H16 H 0.9197 0.1947 0.9980
C17 C 0.9321(2) 0.2084(3) 0.9754(2)
H17 H 0.9416 0.2149 0.9825
C21 C 0.8430(2) 0.1488(2) 1.0178(2)
O21A O 0.83232(10) 0.13807(12) 1.00832(11)
O21B O 0.84167(18) 0.1496(2) 1.03525(14)
C22 C 0.85843(17) 0.15962(17) 1.00668(19)
C23 C 0.85877(18) 0.1599(2) 0.98774(18)
H23 H 0.8492 0.1534 0.9808
C24 C 0.8735(2) 0.1698(2) 0.97766(19)
H24 H 0.8732 0.1700 0.9642
C25 C 0.88786(18) 0.1790(2) 0.9866(2)
C26 C 0.8869(2) 0.1796(3) 1.0060(2)
H26 H 0.8956 0.1871 1.0130
C27 C 0.8728(2) 0.1691(3) 1.0156(2)
H27 H 0.8733 0.1685 1.0291
Zn1 Zn 0.72986(2) 0.18967(2) 1.01054(2)
Zn1 Zn 1.02014(2) 0.26054(2) 0.93967(2)
Zn2 Zn 1.063116(18) 0.224604(18) 0.87578(2)
Zn2 Zn 0.813116(18) 0.12578(2) 1.025396(18)
N3 N 0.77621(13) 0.10412(15) 0.95834(12)
N4 N 0.77558(14) 0.17179(14) 1.01165(13)
N4 N 0.97442(14) 0.26165(13) 0.92179(14)
O1 O 1.0000 0.2500 0.95618(13)
O21A O 0.99168(11) 0.16768(10) 0.86193(12)
N1 N 0.24370(14) 0.64342(14) 0.54988(12)
C1 C 0.23611(17) 0.65833(16) 0.54046(14)
H1 H 0.2233 0.6613 0.5434
N2 N 0.24486(13) 0.66962(12) 0.52717(12)
C2 C 0.26318(16) 0.66400(18) 0.52445(16)
C3 C 0.27318(17) 0.64825(18) 0.53367(16)
C4 C 0.26317(19) 0.63844(19) 0.54683(19)
C5 C 0.29169(18) 0.66084(17) 0.51358(17)
H5 H 0.3027 0.6636 0.5063
N5 N 0.27191(12) 0.62346(15) 0.55668(13)
H10A H 0.2838 0.6205 0.5543
H10B H 0.2655 0.6171 0.5652
C11 C 0.1973(2) 0.6955(2) 0.5291(2)
O11A O 0.21104(14) 0.70520(17) 0.52316(16)
O11B O 0.19581(15) 0.67792(16) 0.52756(17)
C12 C 0.18176(18) 0.7061(2) 0.54023(17)
C13 C 0.16717(18) 0.69656(19) 0.5488(2)
H13 H 0.1668 0.6831 0.5482
C14 C 0.15233(19) 0.70649(18) 0.5588(2)
H14 H 0.1422 0.6995 0.5644
C15 C 0.15267(18) 0.72581(19) 0.5605(2)
C16 C 0.1681(2) 0.7348(2) 0.5529(3)
H16 H 0.1697 0.7480 0.5553
C17 C 0.1821(2) 0.7254(2) 0.5416(3)
H17 H 0.1916 0.7325 0.5351
C21 C 0.0930(2) 0.7678(2) 0.6012(2)
O21B O 0.09167(18) 0.78525(14) 0.6004(2)
C22 C 0.10843(17) 0.75668(19) 0.59038(17)
C23 C 0.10877(18) 0.73774(18) 0.5901(2)
H23 H 0.0992 0.7308 0.5966
C24 C 0.1235(2) 0.72766(19) 0.5802(2)
H24 H 0.1232 0.7142 0.5800
C25 C 0.13786(18) 0.7366(2) 0.5710(2)
C26 C 0.1369(2) 0.7560(2) 0.5704(3)
H26 H 0.1456 0.7630 0.5629
C27 C 0.1228(2) 0.7656(2) 0.5809(3)
H27 H 0.1233 0.7791 0.5815
C31 C 0.1952(2) 0.6457(2) 0.5748(2)
O31A O 0.19874(11) 0.63372(14) 0.56168(11)
O31B O 0.20772(12) 0.65138(18) 0.58550(14)
C32 C 0.17411(17) 0.65106(15) 0.57886(16)
C33 C 0.16913(18) 0.66246(18) 0.59395(19)
H33 H 0.1788 0.6676 0.6018
C34 C 0.14982(18) 0.6666(2) 0.59792(19)
H34A H 0.1466 0.6743 0.6085
C35 C 0.13582(16) 0.65948(17) 0.58633(18)
C36 C 0.14068(18) 0.64821(17) 0.57110(17)
H36A H 0.1310 0.6434 0.5631
C37 C 0.16000(16) 0.64380(18) 0.56730(17)
H37A H 0.1632 0.6359 0.5569
C31 C 0.0548(2) 0.6752(2) 0.6043(2)
O31A O 0.05126(11) 0.68832(11) 0.61628(14)
O31B O 0.04228(12) 0.66450(14) 0.59862(18)
C32 C 0.07589(17) 0.67114(16) 0.59894(15)
C33 C 0.08087(18) 0.65605(19) 0.58754(18)
H33 H 0.0712 0.6482 0.5824
C34 C 0.10018(18) 0.65208(19) 0.5834(2)
H34A H 0.1034 0.6415 0.5757
C35 C 0.11418(16) 0.66367(18) 0.59052(17)
C36 C 0.10932(18) 0.67890(17) 0.60179(17)
H36A H 0.1190 0.6869 0.6066
C37 C 0.09000(16) 0.68270(17) 0.60620(18)
H37A H 0.0868 0.6931 0.6141
Zn1 Zn 0.02014(2) 0.73946(2) 0.56033(2)
N1 N 0.00630(14) 0.70012(12) 0.60658(14)
C1 C 0.01389(17) 0.70954(14) 0.59167(16)
H1 H 0.0267 0.7066 0.5887
N2 N 0.00514(13) 0.72283(12) 0.58038(12)
C2 C -0.01318(16) 0.72555(16) 0.58600(18)
C3 C -0.02318(17) 0.71633(16) 0.60175(18)
C4 C -0.01317(19) 0.70317(19) 0.61156(19)
N3 N -0.04166(12) 0.72379(13) 0.60412(15)
C5 C -0.04169(18) 0.73642(17) 0.58916(17)
H5 H -0.0527 0.7437 0.5864
N4 N -0.02558(14) 0.73835(13) 0.57821(14)
N5 N -0.02191(12) 0.69332(13) 0.62654(15)
H10A H -0.0338 0.6957 0.6295
H10B H -0.0155 0.6848 0.6329
C11 C 0.0527(2) 0.7209(2) 0.5545(2)
O11A O 0.03896(14) 0.72684(16) 0.54480(17)
O11B O 0.05419(15) 0.72244(17) 0.57208(16)
C12 C 0.06824(18) 0.70977(17) 0.5439(2)
C13 C 0.08283(18) 0.7012(2) 0.55344(19)
H13 H 0.0832 0.7018 0.5669
C14 C 0.09767(19) 0.6912(2) 0.54351(18)
H14 H 0.1078 0.6856 0.5505
C15 C 0.09733(18) 0.6895(2) 0.52419(19)
C16 C 0.0819(2) 0.6971(3) 0.5152(2)
H16 H 0.0803 0.6947 0.5020
C17 C 0.0679(2) 0.7084(3) 0.5246(2)
H17 H 0.0584 0.7149 0.5175
C21 C 0.1570(2) 0.6488(2) 0.4822(2)
O21B O 0.15833(18) 0.6496(2) 0.46475(14)
C22 C 0.14157(17) 0.65962(17) 0.49332(19)
C23 C 0.14123(18) 0.6599(2) 0.51226(18)
H23 H 0.1508 0.6534 0.5192
C24 C 0.1265(2) 0.6698(2) 0.52234(19)
H24 H 0.1268 0.6700 0.5358
C25 C 0.11214(18) 0.6790(2) 0.5134(2)
C26 C 0.1131(2) 0.6796(3) 0.4940(2)
H26 H 0.1044 0.6871 0.4870
C27 C 0.1272(2) 0.6691(3) 0.4844(2)
H27 H 0.1267 0.6685 0.4709
Zn1 Zn -0.02014(2) 0.76054(2) 0.56033(2)
Zn2 Zn -0.063116(18) 0.724604(18) 0.62422(2)
N4 N 0.02558(14) 0.76165(13) 0.57821(14)
O1 O 0.0000 0.7500 0.54382(13)
O21A O 0.00832(11) 0.66768(10) 0.63807(12)
Zn1 Zn 0.27014(2) 0.31033(2) 0.01054(2)
Zn2 Zn 0.275396(18) 0.37578(2) 0.063116(18)
N1 N 0.25630(14) 0.35658(14) 0.04988(12)
C1 C 0.26389(17) 0.34167(16) 0.04046(14)
H1 H 0.2767 0.3387 0.0434
N2 N 0.25514(13) 0.33038(12) 0.02717(12)
C2 C 0.23682(16) 0.33600(18) 0.02445(16)
C3 C 0.22682(17) 0.35175(18) 0.03367(16)
C4 C 0.23683(19) 0.36156(19) 0.04683(19)
N3 N 0.20834(12) 0.35412(15) 0.02621(13)
C5 C 0.20831(18) 0.33916(17) 0.01358(17)
H5 H 0.1973 0.3364 0.0063
N4 N 0.22442(14) 0.32821(14) 0.01165(13)
N5 N 0.22809(12) 0.37654(15) 0.05668(13)
H10A H 0.2162 0.3795 0.0543
H10B H 0.2345 0.3829 0.0652
O1 O 0.2500 0.29382(13) 0.0000
C11 C 0.3027(2) 0.3045(2) 0.0291(2)
O11A O 0.28896(14) 0.29480(17) 0.02316(16)
O11B O 0.30419(15) 0.32208(16) 0.02756(17)
C12 C 0.31824(18) 0.2939(2) 0.04023(17)
C13 C 0.33283(18) 0.30344(19) 0.0488(2)
H13 H 0.3332 0.3169 0.0482
C14 C 0.34767(19) 0.29351(18) 0.0588(2)
H14 H 0.3578 0.3005 0.0644
C15 C 0.34733(18) 0.27419(19) 0.0605(2)
C16 C 0.3319(2) 0.2652(2) 0.0529(3)
H16 H 0.3303 0.2520 0.0553
C17 C 0.3179(2) 0.2746(2) 0.0416(3)
H17 H 0.3084 0.2675 0.0351
C21 C 0.4070(2) 0.2322(2) 0.1012(2)
O21A O 0.41768(10) 0.24168(11) 0.11193(12)
O21B O 0.40833(18) 0.21475(14) 0.1004(2)
C22 C 0.39157(17) 0.24332(19) 0.09038(17)
C23 C 0.39123(18) 0.26226(18) 0.0901(2)
H23 H 0.4008 0.2692 0.0966
C24 C 0.3765(2) 0.27234(19) 0.0802(2)
H24 H 0.3768 0.2858 0.0800
C25 C 0.36214(18) 0.2634(2) 0.0710(2)
C26 C 0.3631(2) 0.2440(2) 0.0704(3)
H26 H 0.3544 0.2370 0.0629
C27 C 0.3772(2) 0.2344(2) 0.0809(3)
H27 H 0.3767 0.2209 0.0815
C31 C 0.3048(2) 0.3543(2) 0.0748(2)
O31A O 0.30126(11) 0.36628(14) 0.06168(11)
O31B O 0.29228(12) 0.34862(18) 0.08550(14)
C32 C 0.32589(17) 0.34894(15) 0.07886(16)
C33 C 0.33087(18) 0.33754(18) 0.09395(19)
H33 H 0.3212 0.3324 0.1018
C34 C 0.35018(18) 0.3334(2) 0.09792(19)
H34A H 0.3534 0.3257 0.1085
C35 C 0.36418(16) 0.34052(17) 0.08633(18)
C36 C 0.35932(18) 0.35179(17) 0.07110(17)
H36A H 0.3690 0.3566 0.0631
C37 C 0.34000(16) 0.35620(18) 0.06730(17)
H37A H 0.3368 0.3641 0.0569
C31 C 0.4452(2) 0.3248(2) 0.1043(2)
O31A O 0.44874(11) 0.31168(11) 0.11628(14)
O31B O 0.45772(12) 0.33550(14) 0.09862(18)
C32 C 0.42411(17) 0.32886(16) 0.09894(15)
C33 C 0.41913(18) 0.34395(19) 0.08754(18)
H33 H 0.4288 0.3518 0.0824
C34 C 0.39982(18) 0.34792(19) 0.0834(2)
H34A H 0.3966 0.3585 0.0757
C35 C 0.38582(16) 0.33633(18) 0.09052(17)
C36 C 0.39068(18) 0.32110(17) 0.10179(17)
H36A H 0.3810 0.3131 0.1066
C37 C 0.41000(16) 0.31730(17) 0.10620(18)
H37A H 0.4132 0.3069 0.1141
Zn1 Zn 0.47986(2) 0.26054(2) 0.06033(2)
Zn2 Zn 0.474604(18) 0.313116(18) 0.12578(2)
N1 N 0.49370(14) 0.29988(12) 0.10658(14)
C1 C 0.48611(17) 0.29046(14) 0.09167(16)
H1 H 0.4733 0.2934 0.0887
N2 N 0.49486(13) 0.27717(12) 0.08038(12)
C2 C 0.51318(16) 0.27445(16) 0.08600(18)
C3 C 0.52318(17) 0.28367(16) 0.10175(18)
C4 C 0.51317(19) 0.29683(19) 0.11156(19)
N3 N 0.54166(12) 0.27621(13) 0.10412(15)
C5 C 0.54169(18) 0.26358(17) 0.08916(17)
H5 H 0.5527 0.2563 0.0864
N4 N 0.52558(14) 0.26165(13) 0.07821(14)
N5 N 0.52191(12) 0.30668(13) 0.12654(15)
H10A H 0.5338 0.3043 0.1295
H10B H 0.5155 0.3152 0.1329
C11 C 0.4473(2) 0.2791(2) 0.0545(2)
O11A O 0.46104(14) 0.27316(16) 0.04480(17)
O11B O 0.44581(15) 0.27756(17) 0.07208(16)
C12 C 0.43176(18) 0.29023(17) 0.0439(2)
C13 C 0.41717(18) 0.2988(2) 0.05344(19)
H13 H 0.4168 0.2982 0.0669
C14 C 0.40233(19) 0.3088(2) 0.04351(18)
H14 H 0.3922 0.3144 0.0505
C15 C 0.40267(18) 0.3105(2) 0.02419(19)
C16 C 0.4181(2) 0.3029(3) 0.0152(2)
H16 H 0.4197 0.3053 0.0020
C17 C 0.4321(2) 0.2916(3) 0.0246(2)
H17 H 0.4416 0.2851 0.0175
C21 C 0.3430(2) 0.3512(2) -0.0178(2)
O21A O 0.33232(10) 0.36193(12) -0.00832(11)
O21B O 0.34167(18) 0.3504(2) -0.03525(14)
C22 C 0.35843(17) 0.34038(17) -0.00668(19)
C23 C 0.35877(18) 0.3401(2) 0.01226(18)
H23 H 0.3492 0.3466 0.0192
C24 C 0.3735(2) 0.3302(2) 0.02234(19)
H24 H 0.3732 0.3300 0.0358
C25 C 0.38786(18) 0.3210(2) 0.0134(2)
C26 C 0.3869(2) 0.3204(3) -0.0060(2)
H26 H 0.3956 0.3129 -0.0130
C27 C 0.3728(2) 0.3309(3) -0.0156(2)
H27 H 0.3733 0.3315 -0.0291
Zn1 Zn 0.22986(2) 0.31033(2) -0.01054(2)
Zn1 Zn 0.52014(2) 0.23946(2) 0.06033(2)
Zn2 Zn 0.563116(18) 0.275396(18) 0.12422(2)
Zn2 Zn 0.313116(18) 0.37422(2) -0.025396(18)
Zn2 Zn 0.436884(18) 0.224604(18) 0.12422(2)
Zn2 Zn 0.186884(18) 0.37422(2) 0.025396(18)
N3 N 0.27621(13) 0.39588(15) 0.04166(12)
N3 N 0.47379(13) 0.29166(12) 0.14588(15)
N4 N 0.27558(14) 0.32821(14) -0.01165(13)
N4 N 0.47442(14) 0.23835(13) 0.07821(14)
O1 O 0.5000 0.2500 0.04382(13)
O21A O 0.49168(11) 0.33232(10) 0.13807(12)
O21A O 0.25832(11) 0.38807(12) 0.08232(10)
Zn1 Zn 0.48946(2) 0.22986(2) 0.18967(2)
Zn2 Zn 0.436884(18) 0.224604(18) 0.12422(2)
N1 N 0.45012(12) 0.24370(14) 0.14342(14)
C1 C 0.45954(14) 0.23611(17) 0.15833(16)
H1 H 0.4566 0.2233 0.1613
N2 N 0.47283(12) 0.24486(13) 0.16962(12)
C2 C 0.47555(16) 0.26318(16) 0.16400(18)
C3 C 0.46633(16) 0.27318(17) 0.14825(18)
C4 C 0.45317(19) 0.26317(19) 0.13844(19)
N3 N 0.47379(13) 0.29166(12) 0.14588(15)
C5 C 0.48642(17) 0.29169(18) 0.16084(17)
H5 H 0.4937 0.3027 0.1636
N4 N 0.48835(13) 0.27558(14) 0.17179(14)
N5 N 0.44332(13) 0.27191(12) 0.12346(15)
H10A H 0.4457 0.2838 0.1205
H10B H 0.4348 0.2655 0.1171
O1 O 0.5000 0.2500 0.20618(13)
C11 C 0.4709(2) 0.1973(2) 0.1955(2)
O11A O 0.47684(16) 0.21104(14) 0.20520(17)
O11B O 0.47244(17) 0.19581(15) 0.17792(16)
C12 C 0.45977(17) 0.18176(18) 0.2061(2)
C13 C 0.4512(2) 0.16717(18) 0.19656(19)
H13 H 0.4518 0.1668 0.1831
C14 C 0.4412(2) 0.15233(19) 0.20649(18)
H14 H 0.4356 0.1422 0.1995
C15 C 0.4395(2) 0.15267(18) 0.22581(19)
C16 C 0.4471(3) 0.1681(2) 0.2348(2)
H16 H 0.4447 0.1697 0.2480
C17 C 0.4584(3) 0.1821(2) 0.2254(2)
H17 H 0.4649 0.1916 0.2325
C21 C 0.3988(2) 0.0930(2) 0.2678(2)
O21A O 0.38807(12) 0.08232(10) 0.25832(11)
O21B O 0.3996(2) 0.09167(18) 0.28525(14)
C22 C 0.40962(17) 0.10843(17) 0.25668(19)
C23 C 0.4099(2) 0.10877(18) 0.23774(18)
H23 H 0.4034 0.0992 0.2308
C24 C 0.4198(2) 0.1235(2) 0.22766(19)
H24 H 0.4200 0.1232 0.2142
C25 C 0.4290(2) 0.13786(18) 0.2366(2)
C26 C 0.4296(3) 0.1369(2) 0.2560(2)
H26 H 0.4371 0.1456 0.2630
C27 C 0.4191(3) 0.1228(2) 0.2656(2)
H27 H 0.4185 0.1233 0.2791
C31 C 0.4252(2) 0.1952(2) 0.1457(2)
O31A O 0.43832(11) 0.19874(11) 0.13372(14)
O31B O 0.41450(14) 0.20772(12) 0.15138(18)
C32 C 0.42114(16) 0.17411(17) 0.15106(15)
C33 C 0.40605(19) 0.16913(18) 0.16246(18)
H33 H 0.3982 0.1788 0.1676
C34 C 0.40208(19) 0.14982(18) 0.1666(2)
H34A H 0.3915 0.1466 0.1743
C35 C 0.41367(18) 0.13582(16) 0.15948(17)
C36 C 0.42890(17) 0.14068(18) 0.14821(17)
H36A H 0.4369 0.1310 0.1434
C37 C 0.43270(17) 0.16000(16) 0.14380(18)
H37A H 0.4431 0.1632 0.1359
C31 C 0.3957(2) 0.0548(2) 0.1752(2)
O31A O 0.38372(14) 0.05126(11) 0.18832(11)
O31B O 0.40138(18) 0.04228(12) 0.16450(14)
C32 C 0.40106(15) 0.07589(17) 0.17114(16)
C33 C 0.41246(18) 0.08087(18) 0.15605(19)
H33 H 0.4176 0.0712 0.1482
C34 C 0.4166(2) 0.10018(18) 0.15208(19)
H34A H 0.4243 0.1034 0.1415
C35 C 0.40948(17) 0.11418(16) 0.16367(18)
C36 C 0.39821(17) 0.10932(18) 0.17890(17)
H36A H 0.3934 0.1190 0.1869
C37 C 0.39380(18) 0.09000(16) 0.18270(17)
H37A H 0.3859 0.0868 0.1931
Zn1 Zn 0.43967(2) 0.02014(2) 0.23946(2)
Zn2 Zn 0.37422(2) 0.025396(18) 0.186884(18)
N1 N 0.39342(14) 0.00630(14) 0.20012(12)
C1 C 0.40833(16) 0.01389(17) 0.20954(14)
H1 H 0.4113 0.0267 0.2066
N2 N 0.41962(12) 0.00514(13) 0.22283(12)
C2 C 0.41400(18) -0.01318(16) 0.22555(16)
C3 C 0.39825(18) -0.02318(17) 0.21633(16)
C4 C 0.38844(19) -0.01317(19) 0.20317(19)
N3 N 0.39588(15) -0.04166(12) 0.22379(13)
C5 C 0.41084(17) -0.04169(18) 0.23642(17)
H5 H 0.4136 -0.0527 0.2437
N4 N 0.42179(14) -0.02558(14) 0.23835(13)
N5 N 0.37346(15) -0.02191(12) 0.19332(13)
H10A H 0.3705 -0.0338 0.1957
H10B H 0.3671 -0.0155 0.1848
C11 C 0.4455(2) 0.0527(2) 0.2209(2)
O11A O 0.45520(17) 0.03896(14) 0.22684(16)
O11B O 0.42792(16) 0.05419(15) 0.22244(17)
C12 C 0.4561(2) 0.06824(18) 0.20977(17)
C13 C 0.44656(19) 0.08283(18) 0.2012(2)
H13 H 0.4331 0.0832 0.2018
C14 C 0.45649(18) 0.09767(19) 0.1912(2)
H14 H 0.4495 0.1078 0.1856
C15 C 0.47581(19) 0.09733(18) 0.1895(2)
C16 C 0.4848(2) 0.0819(2) 0.1971(3)
H16 H 0.4980 0.0803 0.1947
C17 C 0.4754(2) 0.0679(2) 0.2084(3)
H17 H 0.4825 0.0584 0.2149
C21 C 0.5178(2) 0.1570(2) 0.1488(2)
O21A O 0.50832(11) 0.16768(10) 0.13807(12)
O21B O 0.53525(14) 0.15833(18) 0.1496(2)
C22 C 0.50668(19) 0.14157(17) 0.15962(17)
C23 C 0.48774(18) 0.14123(18) 0.1599(2)
H23 H 0.4808 0.1508 0.1534
C24 C 0.47766(19) 0.1265(2) 0.1698(2)
H24 H 0.4642 0.1268 0.1700
C25 C 0.4866(2) 0.11214(18) 0.1790(2)
C26 C 0.5060(2) 0.1131(2) 0.1796(3)
H26 H 0.5130 0.1044 0.1871
C27 C 0.5156(2) 0.1272(2) 0.1691(3)
H27 H 0.5291 0.1267 0.1685
Zn1 Zn 0.51054(2) 0.27014(2) 0.18967(2)
Zn1 Zn 0.43967(2) -0.02014(2) 0.26054(2)
Zn2 Zn 0.37578(2) -0.063116(18) 0.224604(18)
Zn2 Zn 0.525396(18) 0.186884(18) 0.12578(2)
Zn2 Zn 0.37578(2) 0.063116(18) 0.275396(18)
Zn2 Zn 0.474604(18) 0.313116(18) 0.12578(2)
N3 N 0.45834(12) 0.22379(13) 0.10412(15)
N3 N 0.35412(15) 0.02621(13) 0.20834(12)
N4 N 0.51165(13) 0.22442(14) 0.17179(14)
N4 N 0.42179(14) 0.02558(14) 0.26165(13)
O1 O 0.45618(13) 0.0000 0.2500
O21A O 0.36193(12) 0.00832(11) 0.16768(10)
O21A O 0.41768(10) 0.24168(11) 0.11193(12)

#END
