
#######################################################################
#
#                 Cambridge Crystallographic Data Centre
#                                CCDC 
#
#######################################################################
#
# If this CIF has been generated from an entry in the Cambridge 
# Structural Database, then it will include bibliographic, chemical, 
# crystal, experimental, refinement or atomic coordinate data resulting 
# from the CCDC's data processing and validation procedures.
#
#######################################################################

data_n1026
_symmetry_cell_setting           cubic
_symmetry_space_group_name_H-M   'F m -3 m'
_symmetry_Int_Tables_number      225
_space_group_name_Hall           '-F 4 2 3'
loop_
_symmetry_equiv_pos_site_id
_symmetry_equiv_pos_as_xyz
1 x,y,z
2 -x,-y,z
3 -x,y,-z
4 x,-y,-z
5 z,x,y
6 z,-x,-y
7 -z,-x,y
8 -z,x,-y
9 y,z,x
10 -y,z,-x
11 y,-z,-x
12 -y,-z,x
13 y,x,-z
14 -y,-x,-z
15 y,-x,z
16 -y,x,z
17 x,z,-y
18 -x,z,y
19 -x,-z,-y
20 x,-z,y
21 z,y,-x
22 z,-y,x
23 -z,y,x
24 -z,-y,-x
25 x,1/2+y,1/2+z
26 -x,1/2-y,1/2+z
27 -x,1/2+y,1/2-z
28 x,1/2-y,1/2-z
29 z,1/2+x,1/2+y
30 z,1/2-x,1/2-y
31 -z,1/2-x,1/2+y
32 -z,1/2+x,1/2-y
33 y,1/2+z,1/2+x
34 -y,1/2+z,1/2-x
35 y,1/2-z,1/2-x
36 -y,1/2-z,1/2+x
37 y,1/2+x,1/2-z
38 -y,1/2-x,1/2-z
39 y,1/2-x,1/2+z
40 -y,1/2+x,1/2+z
41 x,1/2+z,1/2-y
42 -x,1/2+z,1/2+y
43 -x,1/2-z,1/2-y
44 x,1/2-z,1/2+y
45 z,1/2+y,1/2-x
46 z,1/2-y,1/2+x
47 -z,1/2+y,1/2+x
48 -z,1/2-y,1/2-x
49 1/2+x,y,1/2+z
50 1/2-x,-y,1/2+z
51 1/2-x,y,1/2-z
52 1/2+x,-y,1/2-z
53 1/2+z,x,1/2+y
54 1/2+z,-x,1/2-y
55 1/2-z,-x,1/2+y
56 1/2-z,x,1/2-y
57 1/2+y,z,1/2+x
58 1/2-y,z,1/2-x
59 1/2+y,-z,1/2-x
60 1/2-y,-z,1/2+x
61 1/2+y,x,1/2-z
62 1/2-y,-x,1/2-z
63 1/2+y,-x,1/2+z
64 1/2-y,x,1/2+z
65 1/2+x,z,1/2-y
66 1/2-x,z,1/2+y
67 1/2-x,-z,1/2-y
68 1/2+x,-z,1/2+y
69 1/2+z,y,1/2-x
70 1/2+z,-y,1/2+x
71 1/2-z,y,1/2+x
72 1/2-z,-y,1/2-x
73 1/2+x,1/2+y,z
74 1/2-x,1/2-y,z
75 1/2-x,1/2+y,-z
76 1/2+x,1/2-y,-z
77 1/2+z,1/2+x,y
78 1/2+z,1/2-x,-y
79 1/2-z,1/2-x,y
80 1/2-z,1/2+x,-y
81 1/2+y,1/2+z,x
82 1/2-y,1/2+z,-x
83 1/2+y,1/2-z,-x
84 1/2-y,1/2-z,x
85 1/2+y,1/2+x,-z
86 1/2-y,1/2-x,-z
87 1/2+y,1/2-x,z
88 1/2-y,1/2+x,z
89 1/2+x,1/2+z,-y
90 1/2-x,1/2+z,y
91 1/2-x,1/2-z,-y
92 1/2+x,1/2-z,y
93 1/2+z,1/2+y,-x
94 1/2+z,1/2-y,x
95 1/2-z,1/2+y,x
96 1/2-z,1/2-y,-x
97 -x,-y,-z
98 x,y,-z
99 x,-y,z
100 -x,y,z
101 -z,-x,-y
102 -z,x,y
103 z,x,-y
104 z,-x,y
105 -y,-z,-x
106 y,-z,x
107 -y,z,x
108 y,z,-x
109 -y,-x,z
110 y,x,z
111 -y,x,-z
112 y,-x,-z
113 -x,-z,y
114 x,-z,-y
115 x,z,y
116 -x,z,-y
117 -z,-y,x
118 -z,y,-x
119 z,-y,-x
120 z,y,x
121 -x,1/2-y,1/2-z
122 x,1/2+y,1/2-z
123 x,1/2-y,1/2+z
124 -x,1/2+y,1/2+z
125 -z,1/2-x,1/2-y
126 -z,1/2+x,1/2+y
127 z,1/2+x,1/2-y
128 z,1/2-x,1/2+y
129 -y,1/2-z,1/2-x
130 y,1/2-z,1/2+x
131 -y,1/2+z,1/2+x
132 y,1/2+z,1/2-x
133 -y,1/2-x,1/2+z
134 y,1/2+x,1/2+z
135 -y,1/2+x,1/2-z
136 y,1/2-x,1/2-z
137 -x,1/2-z,1/2+y
138 x,1/2-z,1/2-y
139 x,1/2+z,1/2+y
140 -x,1/2+z,1/2-y
141 -z,1/2-y,1/2+x
142 -z,1/2+y,1/2-x
143 z,1/2-y,1/2-x
144 z,1/2+y,1/2+x
145 1/2-x,-y,1/2-z
146 1/2+x,y,1/2-z
147 1/2+x,-y,1/2+z
148 1/2-x,y,1/2+z
149 1/2-z,-x,1/2-y
150 1/2-z,x,1/2+y
151 1/2+z,x,1/2-y
152 1/2+z,-x,1/2+y
153 1/2-y,-z,1/2-x
154 1/2+y,-z,1/2+x
155 1/2-y,z,1/2+x
156 1/2+y,z,1/2-x
157 1/2-y,-x,1/2+z
158 1/2+y,x,1/2+z
159 1/2-y,x,1/2-z
160 1/2+y,-x,1/2-z
161 1/2-x,-z,1/2+y
162 1/2+x,-z,1/2-y
163 1/2+x,z,1/2+y
164 1/2-x,z,1/2-y
165 1/2-z,-y,1/2+x
166 1/2-z,y,1/2-x
167 1/2+z,-y,1/2-x
168 1/2+z,y,1/2+x
169 1/2-x,1/2-y,-z
170 1/2+x,1/2+y,-z
171 1/2+x,1/2-y,z
172 1/2-x,1/2+y,z
173 1/2-z,1/2-x,-y
174 1/2-z,1/2+x,y
175 1/2+z,1/2+x,-y
176 1/2+z,1/2-x,y
177 1/2-y,1/2-z,-x
178 1/2+y,1/2-z,x
179 1/2-y,1/2+z,x
180 1/2+y,1/2+z,-x
181 1/2-y,1/2-x,z
182 1/2+y,1/2+x,z
183 1/2-y,1/2+x,-z
184 1/2+y,1/2-x,-z
185 1/2-x,1/2-z,y
186 1/2+x,1/2-z,-y
187 1/2+x,1/2+z,y
188 1/2-x,1/2+z,-y
189 1/2-z,1/2-y,x
190 1/2-z,1/2+y,-x
191 1/2+z,1/2-y,-x
192 1/2+z,1/2+y,x
_cell_length_a                   68.706(10)
_cell_length_b                   68.706(10)
_cell_length_c                   68.706(10)
_cell_angle_alpha                90.00
_cell_angle_beta                 90.00
_cell_angle_gamma                90.00
_cell_volume                     324328
loop_
_atom_site_label
_atom_site_type_symbol
_atom_site_fract_x
_atom_site_fract_y
_atom_site_fract_z
Cu1 Cu 0.39660(12) 0.60340(12) 0.5000
Cu2 Cu 0.41788(12) 0.58212(12) 0.5000
O1 O 0.3818(3) 0.5931(4) 0.5174(3)
O2 O 0.4051(4) 0.5695(3) 0.5174(3)
C1 C 0.3900(4) 0.5779(4) 0.5254(5)
C2 C 0.3798(5) 0.5648(4) 0.5389(5)
C3 C 0.3866(7) 0.5493(5) 0.5493(5)
H3 H 0.3986 0.5448 0.5448
C4 C 0.3631(4) 0.5707(5) 0.5480(5)
H4 H 0.3583 0.5825 0.5435
C5 C 0.3520(8) 0.5625(6) 0.5625(6)
C6 C 0.3336(8) 0.5692(6) 0.5692(6)
C7 C 0.3179(8) 0.5744(6) 0.5744(6)
C8 C 0.3015(8) 0.5833(6) 0.5833(6)
C9 C 0.2963(5) 0.6002(4) 0.5742(5)
H9 H 0.3034 0.6065 0.5644
C10 C 0.2790(4) 0.6063(5) 0.5818(5)
H10 H 0.2733 0.6175 0.5768
C11 C 0.2700(8) 0.5965(6) 0.5965(6)
C12 C 0.2518(9) 0.6033(5) 0.6033(5)
C13 C 0.2386(8) 0.6114(6) 0.6114(6)
C14 C 0.2196(8) 0.6171(6) 0.6171(6)
C15 C 0.2103(5) 0.6340(5) 0.6126(5)
H15 H 0.2170 0.6423 0.6042
C16 C 0.1926(5) 0.6407(5) 0.6186(5)
H16 H 0.1874 0.6512 0.6118
C17 C 0.1817(8) 0.6336(6) 0.6336(6)
C18 C 0.1634(8) 0.6403(7) 0.6403(7)
C19 C 0.1549(6) 0.6299(7) 0.6549(6)
H19 H 0.1586 0.6174 0.6586
O1 O 0.0931(4) 0.5174(3) 0.8818(3)
O2 O 0.0695(3) 0.5174(3) 0.9051(4)
C1 C 0.0779(4) 0.5254(5) 0.8900(4)
C2 C 0.0648(4) 0.5389(5) 0.8798(5)
C3 C 0.0493(5) 0.5493(5) 0.8866(7)
H3 H 0.0448 0.5448 0.8986
C4 C 0.0707(5) 0.5480(5) 0.8631(4)
H4 H 0.0825 0.5435 0.8583
C5 C 0.0625(6) 0.5625(6) 0.8520(8)
C6 C 0.0692(6) 0.5692(6) 0.8336(8)
C7 C 0.0744(6) 0.5744(6) 0.8179(8)
C8 C 0.0833(6) 0.5833(6) 0.8015(8)
C9 C 0.1002(4) 0.5742(5) 0.7963(5)
H9 H 0.1065 0.5644 0.8034
C10 C 0.1063(5) 0.5818(5) 0.7790(4)
H10 H 0.1175 0.5768 0.7733
C11 C 0.0965(6) 0.5965(6) 0.7700(8)
C12 C 0.1033(5) 0.6033(5) 0.7518(9)
C13 C 0.1114(6) 0.6114(6) 0.7386(8)
C14 C 0.1171(6) 0.6171(6) 0.7196(8)
C15 C 0.1340(5) 0.6126(5) 0.7103(5)
H15 H 0.1423 0.6042 0.7170
C16 C 0.1407(5) 0.6186(5) 0.6926(5)
H16 H 0.1512 0.6118 0.6874
C17 C 0.1336(6) 0.6336(6) 0.6817(8)
C18 C 0.1403(7) 0.6403(7) 0.6634(8)
C19 C 0.1299(7) 0.6549(6) 0.6549(6)
H19 H 0.1174 0.6586 0.6586
O1 O 0.0174(3) 0.8818(3) 0.5931(4)
O2 O 0.0174(3) 0.9051(4) 0.5695(3)
C1 C 0.0254(5) 0.8900(4) 0.5779(4)
C2 C 0.0389(5) 0.8798(5) 0.5648(4)
C3 C 0.0493(5) 0.8866(7) 0.5493(5)
H3 H 0.0448 0.8986 0.5448
C4 C 0.0480(5) 0.8631(4) 0.5707(5)
H4 H 0.0435 0.8583 0.5825
C5 C 0.0625(6) 0.8520(8) 0.5625(6)
C6 C 0.0692(6) 0.8336(8) 0.5692(6)
C7 C 0.0744(6) 0.8179(8) 0.5744(6)
C8 C 0.0833(6) 0.8015(8) 0.5833(6)
C9 C 0.0742(5) 0.7963(5) 0.6002(4)
H9 H 0.0644 0.8034 0.6065
C10 C 0.0818(5) 0.7790(4) 0.6063(5)
H10 H 0.0768 0.7733 0.6175
C11 C 0.0965(6) 0.7700(8) 0.5965(6)
C12 C 0.1033(5) 0.7518(9) 0.6033(5)
C13 C 0.1114(6) 0.7386(8) 0.6114(6)
C14 C 0.1171(6) 0.7196(8) 0.6171(6)
C15 C 0.1126(5) 0.7103(5) 0.6340(5)
H15 H 0.1042 0.7170 0.6423
C16 C 0.1186(5) 0.6926(5) 0.6407(5)
H16 H 0.1118 0.6874 0.6512
C17 C 0.1336(6) 0.6817(8) 0.6336(6)
C18 C 0.1403(7) 0.6634(8) 0.6403(7)
C19 C 0.1549(6) 0.6549(6) 0.6299(7)
H19 H 0.1586 0.6586 0.6174
O1 O 0.3818(3) 0.5174(3) 0.5931(4)
O2 O 0.4051(4) 0.5174(3) 0.5695(3)
C1 C 0.3900(4) 0.5254(5) 0.5779(4)
C2 C 0.3798(5) 0.5389(5) 0.5648(4)
C4 C 0.3631(4) 0.5480(5) 0.5707(5)
H4 H 0.3583 0.5435 0.5825
C9 C 0.2963(5) 0.5742(5) 0.6002(4)
H9 H 0.3034 0.5644 0.6065
C10 C 0.2790(4) 0.5818(5) 0.6063(5)
H10 H 0.2733 0.5768 0.6175
C15 C 0.2103(5) 0.6126(5) 0.6340(5)
H15 H 0.2170 0.6042 0.6423
C16 C 0.1926(5) 0.6186(5) 0.6407(5)
H16 H 0.1874 0.6118 0.6512
O1 O 0.0174(3) 0.5931(4) 0.8818(3)
O2 O 0.0174(3) 0.5695(3) 0.9051(4)
C1 C 0.0254(5) 0.5779(4) 0.8900(4)
C2 C 0.0389(5) 0.5648(4) 0.8798(5)
C4 C 0.0480(5) 0.5707(5) 0.8631(4)
H4 H 0.0435 0.5825 0.8583
C9 C 0.0742(5) 0.6002(4) 0.7963(5)
H9 H 0.0644 0.6065 0.8034
C10 C 0.0818(5) 0.6063(5) 0.7790(4)
H10 H 0.0768 0.6175 0.7733
C15 C 0.1126(5) 0.6340(5) 0.7103(5)
H15 H 0.1042 0.6423 0.7170
C16 C 0.1186(5) 0.6407(5) 0.6926(5)
H16 H 0.1118 0.6512 0.6874
O1 O 0.0931(4) 0.8818(3) 0.5174(3)
O2 O 0.0695(3) 0.9051(4) 0.5174(3)
C1 C 0.0779(4) 0.8900(4) 0.5254(5)
C2 C 0.0648(4) 0.8798(5) 0.5389(5)
C4 C 0.0707(5) 0.8631(4) 0.5480(5)
H4 H 0.0825 0.8583 0.5435
C9 C 0.1002(4) 0.7963(5) 0.5742(5)
H9 H 0.1065 0.8034 0.5644
C10 C 0.1063(5) 0.7790(4) 0.5818(5)
H10 H 0.1175 0.7733 0.5768
C15 C 0.1340(5) 0.7103(5) 0.6126(5)
H15 H 0.1423 0.7170 0.6042
C16 C 0.1407(5) 0.6926(5) 0.6186(5)
H16 H 0.1512 0.6874 0.6118
Cu1 Cu 0.5000 0.60340(12) 0.60340(12)
Cu2 Cu 0.5000 0.58212(12) 0.58212(12)
O1 O 0.4826(3) 0.6182(3) 0.5931(4)
O2 O 0.4826(3) 0.5949(4) 0.5695(3)
C1 C 0.4746(5) 0.6100(4) 0.5779(4)
C2 C 0.4611(5) 0.6202(5) 0.5648(4)
C3 C 0.4507(5) 0.6134(7) 0.5493(5)
H3 H 0.4552 0.6014 0.5448
C4 C 0.4520(5) 0.6369(4) 0.5707(5)
H4 H 0.4565 0.6417 0.5825
C5 C 0.4375(6) 0.6480(8) 0.5625(6)
C6 C 0.4308(6) 0.6664(8) 0.5692(6)
C7 C 0.4256(6) 0.6821(8) 0.5744(6)
C8 C 0.4167(6) 0.6985(8) 0.5833(6)
C9 C 0.4258(5) 0.7037(5) 0.6002(4)
H9 H 0.4356 0.6966 0.6065
C10 C 0.4182(5) 0.7210(4) 0.6063(5)
H10 H 0.4232 0.7267 0.6175
C11 C 0.4035(6) 0.7300(8) 0.5965(6)
C12 C 0.3967(5) 0.7482(9) 0.6033(5)
C13 C 0.3886(6) 0.7614(8) 0.6114(6)
C14 C 0.3829(6) 0.7804(8) 0.6171(6)
C15 C 0.3874(5) 0.7897(5) 0.6340(5)
H15 H 0.3958 0.7830 0.6423
C16 C 0.3814(5) 0.8074(5) 0.6407(5)
H16 H 0.3882 0.8126 0.6512
C17 C 0.3664(6) 0.8183(8) 0.6336(6)
C18 C 0.3597(7) 0.8366(8) 0.6403(7)
C19 C 0.3451(6) 0.8451(6) 0.6299(7)
H19 H 0.3414 0.8414 0.6174
O1 O 0.1182(3) 0.9069(4) 0.5174(3)
O2 O 0.0949(4) 0.9305(3) 0.5174(3)
C1 C 0.1100(4) 0.9221(4) 0.5254(5)
C2 C 0.1202(5) 0.9352(4) 0.5389(5)
C3 C 0.1134(7) 0.9507(5) 0.5493(5)
H3 H 0.1014 0.9552 0.5448
C4 C 0.1369(4) 0.9293(5) 0.5480(5)
H4 H 0.1417 0.9175 0.5435
C5 C 0.1480(8) 0.9375(6) 0.5625(6)
C6 C 0.1664(8) 0.9308(6) 0.5692(6)
C7 C 0.1821(8) 0.9256(6) 0.5744(6)
C8 C 0.1985(8) 0.9167(6) 0.5833(6)
C9 C 0.2037(5) 0.8998(4) 0.5742(5)
H9 H 0.1966 0.8935 0.5644
C10 C 0.2210(4) 0.8937(5) 0.5818(5)
H10 H 0.2267 0.8825 0.5768
C11 C 0.2300(8) 0.9035(6) 0.5965(6)
C12 C 0.2482(9) 0.8967(5) 0.6033(5)
C13 C 0.2614(8) 0.8886(6) 0.6114(6)
C14 C 0.2804(8) 0.8829(6) 0.6171(6)
C15 C 0.2897(5) 0.8660(5) 0.6126(5)
H15 H 0.2830 0.8577 0.6042
C16 C 0.3074(5) 0.8593(5) 0.6186(5)
H16 H 0.3126 0.8488 0.6118
C17 C 0.3183(8) 0.8664(6) 0.6336(6)
C18 C 0.3366(8) 0.8597(7) 0.6403(7)
C19 C 0.3451(6) 0.8701(7) 0.6549(6)
H19 H 0.3414 0.8826 0.6586
O1 O 0.4069(4) 0.9826(3) 0.8818(3)
O2 O 0.4305(3) 0.9826(3) 0.9051(4)
C1 C 0.4221(4) 0.9746(5) 0.8900(4)
C2 C 0.4352(4) 0.9611(5) 0.8798(5)
C3 C 0.4507(5) 0.9507(5) 0.8866(7)
H3 H 0.4552 0.9552 0.8986
C4 C 0.4293(5) 0.9520(5) 0.8631(4)
H4 H 0.4175 0.9565 0.8583
C5 C 0.4375(6) 0.9375(6) 0.8520(8)
C6 C 0.4308(6) 0.9308(6) 0.8336(8)
C7 C 0.4256(6) 0.9256(6) 0.8179(8)
C8 C 0.4167(6) 0.9167(6) 0.8015(8)
C9 C 0.3998(4) 0.9258(5) 0.7963(5)
H9 H 0.3935 0.9356 0.8034
C10 C 0.3937(5) 0.9182(5) 0.7790(4)
H10 H 0.3825 0.9232 0.7733
C11 C 0.4035(6) 0.9035(6) 0.7700(8)
C12 C 0.3967(5) 0.8967(5) 0.7518(9)
C13 C 0.3886(6) 0.8886(6) 0.7386(8)
C14 C 0.3829(6) 0.8829(6) 0.7196(8)
C15 C 0.3660(5) 0.8874(5) 0.7103(5)
H15 H 0.3577 0.8958 0.7170
C16 C 0.3593(5) 0.8814(5) 0.6926(5)
H16 H 0.3488 0.8882 0.6874
C17 C 0.3664(6) 0.8664(6) 0.6817(8)
C18 C 0.3597(7) 0.8597(7) 0.6634(8)
C19 C 0.3701(7) 0.8451(6) 0.6549(6)
H19 H 0.3826 0.8414 0.6586
O1 O 0.4069(4) 0.6182(3) 0.5174(3)
O2 O 0.4305(3) 0.5949(4) 0.5174(3)
C1 C 0.4221(4) 0.6100(4) 0.5254(5)
C2 C 0.4352(4) 0.6202(5) 0.5389(5)
C4 C 0.4293(5) 0.6369(4) 0.5480(5)
H4 H 0.4175 0.6417 0.5435
C9 C 0.3998(4) 0.7037(5) 0.5742(5)
H9 H 0.3935 0.6966 0.5644
C10 C 0.3937(5) 0.7210(4) 0.5818(5)
H10 H 0.3825 0.7267 0.5768
C15 C 0.3660(5) 0.7897(5) 0.6126(5)
H15 H 0.3577 0.7830 0.6042
C16 C 0.3593(5) 0.8074(5) 0.6186(5)
H16 H 0.3488 0.8126 0.6118
O1 O 0.1182(3) 0.9826(3) 0.5931(4)
O2 O 0.0949(4) 0.9826(3) 0.5695(3)
C1 C 0.1100(4) 0.9746(5) 0.5779(4)
C2 C 0.1202(5) 0.9611(5) 0.5648(4)
C4 C 0.1369(4) 0.9520(5) 0.5707(5)
H4 H 0.1417 0.9565 0.5825
C9 C 0.2037(5) 0.9258(5) 0.6002(4)
H9 H 0.1966 0.9356 0.6065
C10 C 0.2210(4) 0.9182(5) 0.6063(5)
H10 H 0.2267 0.9232 0.6175
C15 C 0.2897(5) 0.8874(5) 0.6340(5)
H15 H 0.2830 0.8958 0.6423
C16 C 0.3074(5) 0.8814(5) 0.6407(5)
H16 H 0.3126 0.8882 0.6512
O1 O 0.4826(3) 0.9069(4) 0.8818(3)
O2 O 0.4826(3) 0.9305(3) 0.9051(4)
C1 C 0.4746(5) 0.9221(4) 0.8900(4)
C2 C 0.4611(5) 0.9352(4) 0.8798(5)
C4 C 0.4520(5) 0.9293(5) 0.8631(4)
H4 H 0.4565 0.9175 0.8583
C9 C 0.4258(5) 0.8998(4) 0.7963(5)
H9 H 0.4356 0.8935 0.8034
C10 C 0.4182(5) 0.8937(5) 0.7790(4)
H10 H 0.4232 0.8825 0.7733
C15 C 0.3874(5) 0.8660(5) 0.7103(5)
H15 H 0.3958 0.8577 0.7170
C16 C 0.3814(5) 0.8593(5) 0.6926(5)
H16 H 0.3882 0.8488 0.6874
Cu1 Cu 0.39660(12) 0.5000 0.60340(12)
Cu2 Cu 0.41788(12) 0.5000 0.58212(12)
Cu1 Cu 0.5000 0.89660(12) 0.89660(12)
Cu1 Cu 0.39660(12) 1.0000 0.89660(12)
Cu1 Cu 0.0000 0.60340(12) 0.89660(12)
Cu1 Cu 0.10340(12) 0.5000 0.89660(12)
Cu1 Cu 0.10340(12) 0.89660(12) 0.5000
Cu1 Cu 0.0000 0.89660(12) 0.60340(12)
Cu1 Cu 0.10340(12) 1.0000 0.60340(12)
Cu2 Cu 0.5000 0.91788(12) 0.91788(12)
Cu2 Cu 0.41788(12) 1.0000 0.91788(12)
Cu2 Cu 0.0000 0.58212(12) 0.91788(12)
Cu2 Cu 0.08212(12) 0.5000 0.91788(12)
Cu2 Cu 0.08212(12) 0.91788(12) 0.5000
Cu2 Cu 0.0000 0.91788(12) 0.58212(12)
Cu2 Cu 0.08212(12) 1.0000 0.58212(12)
O1 O 0.4069(4) 0.5174(3) 0.6182(3)
O1 O 0.4069(4) 0.6182(3) 0.4826(3)
O1 O 0.3818(3) 0.4826(3) 0.5931(4)
O1 O 0.5174(3) 0.5931(4) 0.6182(3)
O1 O 0.3818(3) 0.5931(4) 0.4826(3)
O1 O 0.5174(3) 0.6182(3) 0.5931(4)
O1 O 0.4069(4) 0.4826(3) 0.6182(3)
O1 O 0.4826(3) 0.5931(4) 0.6182(3)
O2 O 0.4305(3) 0.5174(3) 0.5949(4)
O2 O 0.4305(3) 0.5949(4) 0.4826(3)
O2 O 0.4051(4) 0.4826(3) 0.5695(3)
O2 O 0.5174(3) 0.5695(3) 0.5949(4)
O2 O 0.4051(4) 0.5695(3) 0.4826(3)
O2 O 0.5174(3) 0.5949(4) 0.5695(3)
O2 O 0.4305(3) 0.4826(3) 0.5949(4)
O2 O 0.4826(3) 0.5695(3) 0.5949(4)
Cu1 Cu 0.60340(12) 0.39660(12) 0.5000
Cu2 Cu 0.58212(12) 0.41788(12) 0.5000
O1 O 0.6182(3) 0.4069(4) 0.5174(3)
O2 O 0.5949(4) 0.4305(3) 0.5174(3)
C1 C 0.6100(4) 0.4221(4) 0.5254(5)
C2 C 0.6202(5) 0.4352(4) 0.5389(5)
C3 C 0.6134(7) 0.4507(5) 0.5493(5)
H3 H 0.6014 0.4552 0.5448
C4 C 0.6369(4) 0.4293(5) 0.5480(5)
H4 H 0.6417 0.4175 0.5435
C5 C 0.6480(8) 0.4375(6) 0.5625(6)
C6 C 0.6664(8) 0.4308(6) 0.5692(6)
C7 C 0.6821(8) 0.4256(6) 0.5744(6)
C8 C 0.6985(8) 0.4167(6) 0.5833(6)
C9 C 0.7037(5) 0.3998(4) 0.5742(5)
H9 H 0.6966 0.3935 0.5644
C10 C 0.7210(4) 0.3937(5) 0.5818(5)
H10 H 0.7267 0.3825 0.5768
C11 C 0.7300(8) 0.4035(6) 0.5965(6)
C12 C 0.7482(9) 0.3967(5) 0.6033(5)
C13 C 0.7614(8) 0.3886(6) 0.6114(6)
C14 C 0.7804(8) 0.3829(6) 0.6171(6)
C15 C 0.7897(5) 0.3660(5) 0.6126(5)
H15 H 0.7830 0.3577 0.6042
C16 C 0.8074(5) 0.3593(5) 0.6186(5)
H16 H 0.8126 0.3488 0.6118
C17 C 0.8183(8) 0.3664(6) 0.6336(6)
C18 C 0.8366(8) 0.3597(7) 0.6403(7)
C19 C 0.8451(6) 0.3701(7) 0.6549(6)
H19 H 0.8414 0.3826 0.6586
O1 O 0.9069(4) 0.4826(3) 0.8818(3)
O2 O 0.9305(3) 0.4826(3) 0.9051(4)
C1 C 0.9221(4) 0.4746(5) 0.8900(4)
C2 C 0.9352(4) 0.4611(5) 0.8798(5)
C3 C 0.9507(5) 0.4507(5) 0.8866(7)
H3 H 0.9552 0.4552 0.8986
C4 C 0.9293(5) 0.4520(5) 0.8631(4)
H4 H 0.9175 0.4565 0.8583
C5 C 0.9375(6) 0.4375(6) 0.8520(8)
C6 C 0.9308(6) 0.4308(6) 0.8336(8)
C7 C 0.9256(6) 0.4256(6) 0.8179(8)
C8 C 0.9167(6) 0.4167(6) 0.8015(8)
C9 C 0.8998(4) 0.4258(5) 0.7963(5)
H9 H 0.8935 0.4356 0.8034
C10 C 0.8937(5) 0.4182(5) 0.7790(4)
H10 H 0.8825 0.4232 0.7733
C11 C 0.9035(6) 0.4035(6) 0.7700(8)
C12 C 0.8967(5) 0.3967(5) 0.7518(9)
C13 C 0.8886(6) 0.3886(6) 0.7386(8)
C14 C 0.8829(6) 0.3829(6) 0.7196(8)
C15 C 0.8660(5) 0.3874(5) 0.7103(5)
H15 H 0.8577 0.3958 0.7170
C16 C 0.8593(5) 0.3814(5) 0.6926(5)
H16 H 0.8488 0.3882 0.6874
C17 C 0.8664(6) 0.3664(6) 0.6817(8)
C18 C 0.8597(7) 0.3597(7) 0.6634(8)
C19 C 0.8701(7) 0.3451(6) 0.6549(6)
H19 H 0.8826 0.3414 0.6586
O1 O 0.9826(3) 0.1182(3) 0.5931(4)
O2 O 0.9826(3) 0.0949(4) 0.5695(3)
C1 C 0.9746(5) 0.1100(4) 0.5779(4)
C2 C 0.9611(5) 0.1202(5) 0.5648(4)
C3 C 0.9507(5) 0.1134(7) 0.5493(5)
H3 H 0.9552 0.1014 0.5448
C4 C 0.9520(5) 0.1369(4) 0.5707(5)
H4 H 0.9565 0.1417 0.5825
C5 C 0.9375(6) 0.1480(8) 0.5625(6)
C6 C 0.9308(6) 0.1664(8) 0.5692(6)
C7 C 0.9256(6) 0.1821(8) 0.5744(6)
C8 C 0.9167(6) 0.1985(8) 0.5833(6)
C9 C 0.9258(5) 0.2037(5) 0.6002(4)
H9 H 0.9356 0.1966 0.6065
C10 C 0.9182(5) 0.2210(4) 0.6063(5)
H10 H 0.9232 0.2267 0.6175
C11 C 0.9035(6) 0.2300(8) 0.5965(6)
C12 C 0.8967(5) 0.2482(9) 0.6033(5)
C13 C 0.8886(6) 0.2614(8) 0.6114(6)
C14 C 0.8829(6) 0.2804(8) 0.6171(6)
C15 C 0.8874(5) 0.2897(5) 0.6340(5)
H15 H 0.8958 0.2830 0.6423
C16 C 0.8814(5) 0.3074(5) 0.6407(5)
H16 H 0.8882 0.3126 0.6512
C17 C 0.8664(6) 0.3183(8) 0.6336(6)
C18 C 0.8597(7) 0.3366(8) 0.6403(7)
C19 C 0.8451(6) 0.3451(6) 0.6299(7)
H19 H 0.8414 0.3414 0.6174
O1 O 0.6182(3) 0.4826(3) 0.5931(4)
O2 O 0.5949(4) 0.4826(3) 0.5695(3)
C1 C 0.6100(4) 0.4746(5) 0.5779(4)
C2 C 0.6202(5) 0.4611(5) 0.5648(4)
C4 C 0.6369(4) 0.4520(5) 0.5707(5)
H4 H 0.6417 0.4565 0.5825
C9 C 0.7037(5) 0.4258(5) 0.6002(4)
H9 H 0.6966 0.4356 0.6065
C10 C 0.7210(4) 0.4182(5) 0.6063(5)
H10 H 0.7267 0.4232 0.6175
C15 C 0.7897(5) 0.3874(5) 0.6340(5)
H15 H 0.7830 0.3958 0.6423
C16 C 0.8074(5) 0.3814(5) 0.6407(5)
H16 H 0.8126 0.3882 0.6512
O1 O 0.9826(3) 0.4069(4) 0.8818(3)
O2 O 0.9826(3) 0.4305(3) 0.9051(4)
C1 C 0.9746(5) 0.4221(4) 0.8900(4)
C2 C 0.9611(5) 0.4352(4) 0.8798(5)
C4 C 0.9520(5) 0.4293(5) 0.8631(4)
H4 H 0.9565 0.4175 0.8583
C9 C 0.9258(5) 0.3998(4) 0.7963(5)
H9 H 0.9356 0.3935 0.8034
C10 C 0.9182(5) 0.3937(5) 0.7790(4)
H10 H 0.9232 0.3825 0.7733
C15 C 0.8874(5) 0.3660(5) 0.7103(5)
H15 H 0.8958 0.3577 0.7170
C16 C 0.8814(5) 0.3593(5) 0.6926(5)
H16 H 0.8882 0.3488 0.6874
O1 O 0.9069(4) 0.1182(3) 0.5174(3)
O2 O 0.9305(3) 0.0949(4) 0.5174(3)
C1 C 0.9221(4) 0.1100(4) 0.5254(5)
C2 C 0.9352(4) 0.1202(5) 0.5389(5)
C4 C 0.9293(5) 0.1369(4) 0.5480(5)
H4 H 0.9175 0.1417 0.5435
C9 C 0.8998(4) 0.2037(5) 0.5742(5)
H9 H 0.8935 0.1966 0.5644
C10 C 0.8937(5) 0.2210(4) 0.5818(5)
H10 H 0.8825 0.2267 0.5768
C15 C 0.8660(5) 0.2897(5) 0.6126(5)
H15 H 0.8577 0.2830 0.6042
C16 C 0.8593(5) 0.3074(5) 0.6186(5)
H16 H 0.8488 0.3126 0.6118
Cu1 Cu 0.5000 0.39660(12) 0.60340(12)
Cu2 Cu 0.5000 0.41788(12) 0.58212(12)
O1 O 0.5174(3) 0.3818(3) 0.5931(4)
O2 O 0.5174(3) 0.4051(4) 0.5695(3)
C1 C 0.5254(5) 0.3900(4) 0.5779(4)
C2 C 0.5389(5) 0.3798(5) 0.5648(4)
C3 C 0.5493(5) 0.3866(7) 0.5493(5)
H3 H 0.5448 0.3986 0.5448
C4 C 0.5480(5) 0.3631(4) 0.5707(5)
H4 H 0.5435 0.3583 0.5825
C5 C 0.5625(6) 0.3520(8) 0.5625(6)
C6 C 0.5692(6) 0.3336(8) 0.5692(6)
C7 C 0.5744(6) 0.3179(8) 0.5744(6)
C8 C 0.5833(6) 0.3015(8) 0.5833(6)
C9 C 0.5742(5) 0.2963(5) 0.6002(4)
H9 H 0.5644 0.3034 0.6065
C10 C 0.5818(5) 0.2790(4) 0.6063(5)
H10 H 0.5768 0.2733 0.6175
C11 C 0.5965(6) 0.2700(8) 0.5965(6)
C12 C 0.6033(5) 0.2518(9) 0.6033(5)
C13 C 0.6114(6) 0.2386(8) 0.6114(6)
C14 C 0.6171(6) 0.2196(8) 0.6171(6)
C15 C 0.6126(5) 0.2103(5) 0.6340(5)
H15 H 0.6042 0.2170 0.6423
C16 C 0.6186(5) 0.1926(5) 0.6407(5)
H16 H 0.6118 0.1874 0.6512
C17 C 0.6336(6) 0.1817(8) 0.6336(6)
C18 C 0.6403(7) 0.1634(8) 0.6403(7)
C19 C 0.6549(6) 0.1549(6) 0.6299(7)
H19 H 0.6586 0.1586 0.6174
O1 O 0.8818(3) 0.0931(4) 0.5174(3)
O2 O 0.9051(4) 0.0695(3) 0.5174(3)
C1 C 0.8900(4) 0.0779(4) 0.5254(5)
C2 C 0.8798(5) 0.0648(4) 0.5389(5)
C3 C 0.8866(7) 0.0493(5) 0.5493(5)
H3 H 0.8986 0.0448 0.5448
C4 C 0.8631(4) 0.0707(5) 0.5480(5)
H4 H 0.8583 0.0825 0.5435
C5 C 0.8520(8) 0.0625(6) 0.5625(6)
C6 C 0.8336(8) 0.0692(6) 0.5692(6)
C7 C 0.8179(8) 0.0744(6) 0.5744(6)
C8 C 0.8015(8) 0.0833(6) 0.5833(6)
C9 C 0.7963(5) 0.1002(4) 0.5742(5)
H9 H 0.8034 0.1065 0.5644
C10 C 0.7790(4) 0.1063(5) 0.5818(5)
H10 H 0.7733 0.1175 0.5768
C11 C 0.7700(8) 0.0965(6) 0.5965(6)
C12 C 0.7518(9) 0.1033(5) 0.6033(5)
C13 C 0.7386(8) 0.1114(6) 0.6114(6)
C14 C 0.7196(8) 0.1171(6) 0.6171(6)
C15 C 0.7103(5) 0.1340(5) 0.6126(5)
H15 H 0.7170 0.1423 0.6042
C16 C 0.6926(5) 0.1407(5) 0.6186(5)
H16 H 0.6874 0.1512 0.6118
C17 C 0.6817(8) 0.1336(6) 0.6336(6)
C18 C 0.6634(8) 0.1403(7) 0.6403(7)
C19 C 0.6549(6) 0.1299(7) 0.6549(6)
H19 H 0.6586 0.1174 0.6586
O1 O 0.5931(4) 0.0174(3) 0.8818(3)
O2 O 0.5695(3) 0.0174(3) 0.9051(4)
C1 C 0.5779(4) 0.0254(5) 0.8900(4)
C2 C 0.5648(4) 0.0389(5) 0.8798(5)
C3 C 0.5493(5) 0.0493(5) 0.8866(7)
H3 H 0.5448 0.0448 0.8986
C4 C 0.5707(5) 0.0480(5) 0.8631(4)
H4 H 0.5825 0.0435 0.8583
C5 C 0.5625(6) 0.0625(6) 0.8520(8)
C6 C 0.5692(6) 0.0692(6) 0.8336(8)
C7 C 0.5744(6) 0.0744(6) 0.8179(8)
C8 C 0.5833(6) 0.0833(6) 0.8015(8)
C9 C 0.6002(4) 0.0742(5) 0.7963(5)
H9 H 0.6065 0.0644 0.8034
C10 C 0.6063(5) 0.0818(5) 0.7790(4)
H10 H 0.6175 0.0768 0.7733
C11 C 0.5965(6) 0.0965(6) 0.7700(8)
C12 C 0.6033(5) 0.1033(5) 0.7518(9)
C13 C 0.6114(6) 0.1114(6) 0.7386(8)
C14 C 0.6171(6) 0.1171(6) 0.7196(8)
C15 C 0.6340(5) 0.1126(5) 0.7103(5)
H15 H 0.6423 0.1042 0.7170
C16 C 0.6407(5) 0.1186(5) 0.6926(5)
H16 H 0.6512 0.1118 0.6874
C17 C 0.6336(6) 0.1336(6) 0.6817(8)
C18 C 0.6403(7) 0.1403(7) 0.6634(8)
C19 C 0.6299(7) 0.1549(6) 0.6549(6)
H19 H 0.6174 0.1586 0.6586
O1 O 0.5931(4) 0.3818(3) 0.5174(3)
O2 O 0.5695(3) 0.4051(4) 0.5174(3)
C1 C 0.5779(4) 0.3900(4) 0.5254(5)
C2 C 0.5648(4) 0.3798(5) 0.5389(5)
C4 C 0.5707(5) 0.3631(4) 0.5480(5)
H4 H 0.5825 0.3583 0.5435
C9 C 0.6002(4) 0.2963(5) 0.5742(5)
H9 H 0.6065 0.3034 0.5644
C10 C 0.6063(5) 0.2790(4) 0.5818(5)
H10 H 0.6175 0.2733 0.5768
C15 C 0.6340(5) 0.2103(5) 0.6126(5)
H15 H 0.6423 0.2170 0.6042
C16 C 0.6407(5) 0.1926(5) 0.6186(5)
H16 H 0.6512 0.1874 0.6118
O1 O 0.8818(3) 0.0174(3) 0.5931(4)
O2 O 0.9051(4) 0.0174(3) 0.5695(3)
C1 C 0.8900(4) 0.0254(5) 0.5779(4)
C2 C 0.8798(5) 0.0389(5) 0.5648(4)
C4 C 0.8631(4) 0.0480(5) 0.5707(5)
H4 H 0.8583 0.0435 0.5825
C9 C 0.7963(5) 0.0742(5) 0.6002(4)
H9 H 0.8034 0.0644 0.6065
C10 C 0.7790(4) 0.0818(5) 0.6063(5)
H10 H 0.7733 0.0768 0.6175
C15 C 0.7103(5) 0.1126(5) 0.6340(5)
H15 H 0.7170 0.1042 0.6423
C16 C 0.6926(5) 0.1186(5) 0.6407(5)
H16 H 0.6874 0.1118 0.6512
O1 O 0.5174(3) 0.0931(4) 0.8818(3)
O2 O 0.5174(3) 0.0695(3) 0.9051(4)
C1 C 0.5254(5) 0.0779(4) 0.8900(4)
C2 C 0.5389(5) 0.0648(4) 0.8798(5)
C4 C 0.5480(5) 0.0707(5) 0.8631(4)
H4 H 0.5435 0.0825 0.8583
C9 C 0.5742(5) 0.1002(4) 0.7963(5)
H9 H 0.5644 0.1065 0.8034
C10 C 0.5818(5) 0.1063(5) 0.7790(4)
H10 H 0.5768 0.1175 0.7733
C15 C 0.6126(5) 0.1340(5) 0.7103(5)
H15 H 0.6042 0.1423 0.7170
C16 C 0.6186(5) 0.1407(5) 0.6926(5)
H16 H 0.6118 0.1512 0.6874
Cu1 Cu 0.60340(12) 0.5000 0.60340(12)
Cu2 Cu 0.58212(12) 0.5000 0.58212(12)
Cu1 Cu 0.5000 0.10340(12) 0.89660(12)
Cu1 Cu 0.60340(12) 0.0000 0.89660(12)
Cu1 Cu 1.0000 0.39660(12) 0.89660(12)
Cu1 Cu 0.89660(12) 0.5000 0.89660(12)
Cu1 Cu 0.89660(12) 0.10340(12) 0.5000
Cu1 Cu 1.0000 0.10340(12) 0.60340(12)
Cu1 Cu 0.89660(12) 0.0000 0.60340(12)
Cu2 Cu 0.5000 0.08212(12) 0.91788(12)
Cu2 Cu 0.58212(12) 0.0000 0.91788(12)
Cu2 Cu 1.0000 0.41788(12) 0.91788(12)
Cu2 Cu 0.91788(12) 0.5000 0.91788(12)
Cu2 Cu 0.91788(12) 0.08212(12) 0.5000
Cu2 Cu 1.0000 0.08212(12) 0.58212(12)
Cu2 Cu 0.91788(12) 0.0000 0.58212(12)
O1 O 0.5931(4) 0.4826(3) 0.6182(3)
O1 O 0.5931(4) 0.3818(3) 0.4826(3)
O1 O 0.6182(3) 0.5174(3) 0.5931(4)
O1 O 0.4826(3) 0.4069(4) 0.6182(3)
O1 O 0.6182(3) 0.4069(4) 0.4826(3)
O1 O 0.4826(3) 0.3818(3) 0.5931(4)
O1 O 0.5931(4) 0.5174(3) 0.6182(3)
O1 O 0.5174(3) 0.4069(4) 0.6182(3)
O2 O 0.5695(3) 0.4826(3) 0.5949(4)
O2 O 0.5695(3) 0.4051(4) 0.4826(3)
O2 O 0.5949(4) 0.5174(3) 0.5695(3)
O2 O 0.4826(3) 0.4305(3) 0.5949(4)
O2 O 0.5949(4) 0.4305(3) 0.4826(3)
O2 O 0.4826(3) 0.4051(4) 0.5695(3)
O2 O 0.5695(3) 0.5174(3) 0.5949(4)
O2 O 0.5174(3) 0.4305(3) 0.5949(4)
Cu1 Cu 0.60340(12) 0.60340(12) 0.5000
Cu2 Cu 0.58212(12) 0.58212(12) 0.5000
O1 O 0.6182(3) 0.5931(4) 0.4826(3)
O2 O 0.5949(4) 0.5695(3) 0.4826(3)
C1 C 0.6100(4) 0.5779(4) 0.4746(5)
C2 C 0.6202(5) 0.5648(4) 0.4611(5)
C3 C 0.6134(7) 0.5493(5) 0.4507(5)
H3 H 0.6014 0.5448 0.4552
C4 C 0.6369(4) 0.5707(5) 0.4520(5)
H4 H 0.6417 0.5825 0.4565
C5 C 0.6480(8) 0.5625(6) 0.4375(6)
C6 C 0.6664(8) 0.5692(6) 0.4308(6)
C7 C 0.6821(8) 0.5744(6) 0.4256(6)
C8 C 0.6985(8) 0.5833(6) 0.4167(6)
C9 C 0.7037(5) 0.6002(4) 0.4258(5)
H9 H 0.6966 0.6065 0.4356
C10 C 0.7210(4) 0.6063(5) 0.4182(5)
H10 H 0.7267 0.6175 0.4232
C11 C 0.7300(8) 0.5965(6) 0.4035(6)
C12 C 0.7482(9) 0.6033(5) 0.3967(5)
C13 C 0.7614(8) 0.6114(6) 0.3886(6)
C14 C 0.7804(8) 0.6171(6) 0.3829(6)
C15 C 0.7897(5) 0.6340(5) 0.3874(5)
H15 H 0.7830 0.6423 0.3958
C16 C 0.8074(5) 0.6407(5) 0.3814(5)
H16 H 0.8126 0.6512 0.3882
C17 C 0.8183(8) 0.6336(6) 0.3664(6)
C18 C 0.8366(8) 0.6403(7) 0.3597(7)
C19 C 0.8451(6) 0.6299(7) 0.3451(6)
H19 H 0.8414 0.6174 0.3414
O1 O 0.9069(4) 0.5174(3) 0.1182(3)
O2 O 0.9305(3) 0.5174(3) 0.0949(4)
C1 C 0.9221(4) 0.5254(5) 0.1100(4)
C2 C 0.9352(4) 0.5389(5) 0.1202(5)
C3 C 0.9507(5) 0.5493(5) 0.1134(7)
H3 H 0.9552 0.5448 0.1014
C4 C 0.9293(5) 0.5480(5) 0.1369(4)
H4 H 0.9175 0.5435 0.1417
C5 C 0.9375(6) 0.5625(6) 0.1480(8)
C6 C 0.9308(6) 0.5692(6) 0.1664(8)
C7 C 0.9256(6) 0.5744(6) 0.1821(8)
C8 C 0.9167(6) 0.5833(6) 0.1985(8)
C9 C 0.8998(4) 0.5742(5) 0.2037(5)
H9 H 0.8935 0.5644 0.1966
C10 C 0.8937(5) 0.5818(5) 0.2210(4)
H10 H 0.8825 0.5768 0.2267
C11 C 0.9035(6) 0.5965(6) 0.2300(8)
C12 C 0.8967(5) 0.6033(5) 0.2482(9)
C13 C 0.8886(6) 0.6114(6) 0.2614(8)
C14 C 0.8829(6) 0.6171(6) 0.2804(8)
C15 C 0.8660(5) 0.6126(5) 0.2897(5)
H15 H 0.8577 0.6042 0.2830
C16 C 0.8593(5) 0.6186(5) 0.3074(5)
H16 H 0.8488 0.6118 0.3126
C17 C 0.8664(6) 0.6336(6) 0.3183(8)
C18 C 0.8597(7) 0.6403(7) 0.3366(8)
C19 C 0.8701(7) 0.6549(6) 0.3451(6)
H19 H 0.8826 0.6586 0.3414
O1 O 0.9826(3) 0.8818(3) 0.4069(4)
O2 O 0.9826(3) 0.9051(4) 0.4305(3)
C1 C 0.9746(5) 0.8900(4) 0.4221(4)
C2 C 0.9611(5) 0.8798(5) 0.4352(4)
C3 C 0.9507(5) 0.8866(7) 0.4507(5)
H3 H 0.9552 0.8986 0.4552
C4 C 0.9520(5) 0.8631(4) 0.4293(5)
H4 H 0.9565 0.8583 0.4175
C5 C 0.9375(6) 0.8520(8) 0.4375(6)
C6 C 0.9308(6) 0.8336(8) 0.4308(6)
C7 C 0.9256(6) 0.8179(8) 0.4256(6)
C8 C 0.9167(6) 0.8015(8) 0.4167(6)
C9 C 0.9258(5) 0.7963(5) 0.3998(4)
H9 H 0.9356 0.8034 0.3935
C10 C 0.9182(5) 0.7790(4) 0.3937(5)
H10 H 0.9232 0.7733 0.3825
C11 C 0.9035(6) 0.7700(8) 0.4035(6)
C12 C 0.8967(5) 0.7518(9) 0.3967(5)
C13 C 0.8886(6) 0.7386(8) 0.3886(6)
C14 C 0.8829(6) 0.7196(8) 0.3829(6)
C15 C 0.8874(5) 0.7103(5) 0.3660(5)
H15 H 0.8958 0.7170 0.3577
C16 C 0.8814(5) 0.6926(5) 0.3593(5)
H16 H 0.8882 0.6874 0.3488
C17 C 0.8664(6) 0.6817(8) 0.3664(6)
C18 C 0.8597(7) 0.6634(8) 0.3597(7)
C19 C 0.8451(6) 0.6549(6) 0.3701(7)
H19 H 0.8414 0.6586 0.3826
O1 O 0.6182(3) 0.5174(3) 0.4069(4)
O2 O 0.5949(4) 0.5174(3) 0.4305(3)
C1 C 0.6100(4) 0.5254(5) 0.4221(4)
C2 C 0.6202(5) 0.5389(5) 0.4352(4)
C4 C 0.6369(4) 0.5480(5) 0.4293(5)
H4 H 0.6417 0.5435 0.4175
C9 C 0.7037(5) 0.5742(5) 0.3998(4)
H9 H 0.6966 0.5644 0.3935
C10 C 0.7210(4) 0.5818(5) 0.3937(5)
H10 H 0.7267 0.5768 0.3825
C15 C 0.7897(5) 0.6126(5) 0.3660(5)
H15 H 0.7830 0.6042 0.3577
C16 C 0.8074(5) 0.6186(5) 0.3593(5)
H16 H 0.8126 0.6118 0.3488
O1 O 0.9826(3) 0.5931(4) 0.1182(3)
O2 O 0.9826(3) 0.5695(3) 0.0949(4)
C1 C 0.9746(5) 0.5779(4) 0.1100(4)
C2 C 0.9611(5) 0.5648(4) 0.1202(5)
C4 C 0.9520(5) 0.5707(5) 0.1369(4)
H4 H 0.9565 0.5825 0.1417
C9 C 0.9258(5) 0.6002(4) 0.2037(5)
H9 H 0.9356 0.6065 0.1966
C10 C 0.9182(5) 0.6063(5) 0.2210(4)
H10 H 0.9232 0.6175 0.2267
C15 C 0.8874(5) 0.6340(5) 0.2897(5)
H15 H 0.8958 0.6423 0.2830
C16 C 0.8814(5) 0.6407(5) 0.3074(5)
H16 H 0.8882 0.6512 0.3126
O1 O 0.9069(4) 0.8818(3) 0.4826(3)
O2 O 0.9305(3) 0.9051(4) 0.4826(3)
C1 C 0.9221(4) 0.8900(4) 0.4746(5)
C2 C 0.9352(4) 0.8798(5) 0.4611(5)
C4 C 0.9293(5) 0.8631(4) 0.4520(5)
H4 H 0.9175 0.8583 0.4565
C9 C 0.8998(4) 0.7963(5) 0.4258(5)
H9 H 0.8935 0.8034 0.4356
C10 C 0.8937(5) 0.7790(4) 0.4182(5)
H10 H 0.8825 0.7733 0.4232
C15 C 0.8660(5) 0.7103(5) 0.3874(5)
H15 H 0.8577 0.7170 0.3958
C16 C 0.8593(5) 0.6926(5) 0.3814(5)
H16 H 0.8488 0.6874 0.3882
Cu1 Cu 0.5000 0.60340(12) 0.39660(12)
Cu2 Cu 0.5000 0.58212(12) 0.41788(12)
O1 O 0.5174(3) 0.6182(3) 0.4069(4)
O2 O 0.5174(3) 0.5949(4) 0.4305(3)
C1 C 0.5254(5) 0.6100(4) 0.4221(4)
C2 C 0.5389(5) 0.6202(5) 0.4352(4)
C3 C 0.5493(5) 0.6134(7) 0.4507(5)
H3 H 0.5448 0.6014 0.4552
C4 C 0.5480(5) 0.6369(4) 0.4293(5)
H4 H 0.5435 0.6417 0.4175
C5 C 0.5625(6) 0.6480(8) 0.4375(6)
C6 C 0.5692(6) 0.6664(8) 0.4308(6)
C7 C 0.5744(6) 0.6821(8) 0.4256(6)
C8 C 0.5833(6) 0.6985(8) 0.4167(6)
C9 C 0.5742(5) 0.7037(5) 0.3998(4)
H9 H 0.5644 0.6966 0.3935
C10 C 0.5818(5) 0.7210(4) 0.3937(5)
H10 H 0.5768 0.7267 0.3825
C11 C 0.5965(6) 0.7300(8) 0.4035(6)
C12 C 0.6033(5) 0.7482(9) 0.3967(5)
C13 C 0.6114(6) 0.7614(8) 0.3886(6)
C14 C 0.6171(6) 0.7804(8) 0.3829(6)
C15 C 0.6126(5) 0.7897(5) 0.3660(5)
H15 H 0.6042 0.7830 0.3577
C16 C 0.6186(5) 0.8074(5) 0.3593(5)
H16 H 0.6118 0.8126 0.3488
C17 C 0.6336(6) 0.8183(8) 0.3664(6)
C18 C 0.6403(7) 0.8366(8) 0.3597(7)
C19 C 0.6549(6) 0.8451(6) 0.3701(7)
H19 H 0.6586 0.8414 0.3826
O1 O 0.8818(3) 0.9069(4) 0.4826(3)
O2 O 0.9051(4) 0.9305(3) 0.4826(3)
C1 C 0.8900(4) 0.9221(4) 0.4746(5)
C2 C 0.8798(5) 0.9352(4) 0.4611(5)
C3 C 0.8866(7) 0.9507(5) 0.4507(5)
H3 H 0.8986 0.9552 0.4552
C4 C 0.8631(4) 0.9293(5) 0.4520(5)
H4 H 0.8583 0.9175 0.4565
C5 C 0.8520(8) 0.9375(6) 0.4375(6)
C6 C 0.8336(8) 0.9308(6) 0.4308(6)
C7 C 0.8179(8) 0.9256(6) 0.4256(6)
C8 C 0.8015(8) 0.9167(6) 0.4167(6)
C9 C 0.7963(5) 0.8998(4) 0.4258(5)
H9 H 0.8034 0.8935 0.4356
C10 C 0.7790(4) 0.8937(5) 0.4182(5)
H10 H 0.7733 0.8825 0.4232
C11 C 0.7700(8) 0.9035(6) 0.4035(6)
C12 C 0.7518(9) 0.8967(5) 0.3967(5)
C13 C 0.7386(8) 0.8886(6) 0.3886(6)
C14 C 0.7196(8) 0.8829(6) 0.3829(6)
C15 C 0.7103(5) 0.8660(5) 0.3874(5)
H15 H 0.7170 0.8577 0.3958
C16 C 0.6926(5) 0.8593(5) 0.3814(5)
H16 H 0.6874 0.8488 0.3882
C17 C 0.6817(8) 0.8664(6) 0.3664(6)
C18 C 0.6634(8) 0.8597(7) 0.3597(7)
C19 C 0.6549(6) 0.8701(7) 0.3451(6)
H19 H 0.6586 0.8826 0.3414
O1 O 0.5931(4) 0.9826(3) 0.1182(3)
O2 O 0.5695(3) 0.9826(3) 0.0949(4)
C1 C 0.5779(4) 0.9746(5) 0.1100(4)
C2 C 0.5648(4) 0.9611(5) 0.1202(5)
C3 C 0.5493(5) 0.9507(5) 0.1134(7)
H3 H 0.5448 0.9552 0.1014
C4 C 0.5707(5) 0.9520(5) 0.1369(4)
H4 H 0.5825 0.9565 0.1417
C5 C 0.5625(6) 0.9375(6) 0.1480(8)
C6 C 0.5692(6) 0.9308(6) 0.1664(8)
C7 C 0.5744(6) 0.9256(6) 0.1821(8)
C8 C 0.5833(6) 0.9167(6) 0.1985(8)
C9 C 0.6002(4) 0.9258(5) 0.2037(5)
H9 H 0.6065 0.9356 0.1966
C10 C 0.6063(5) 0.9182(5) 0.2210(4)
H10 H 0.6175 0.9232 0.2267
C11 C 0.5965(6) 0.9035(6) 0.2300(8)
C12 C 0.6033(5) 0.8967(5) 0.2482(9)
C13 C 0.6114(6) 0.8886(6) 0.2614(8)
C14 C 0.6171(6) 0.8829(6) 0.2804(8)
C15 C 0.6340(5) 0.8874(5) 0.2897(5)
H15 H 0.6423 0.8958 0.2830
C16 C 0.6407(5) 0.8814(5) 0.3074(5)
H16 H 0.6512 0.8882 0.3126
C17 C 0.6336(6) 0.8664(6) 0.3183(8)
C18 C 0.6403(7) 0.8597(7) 0.3366(8)
C19 C 0.6299(7) 0.8451(6) 0.3451(6)
H19 H 0.6174 0.8414 0.3414
O1 O 0.5931(4) 0.6182(3) 0.4826(3)
O2 O 0.5695(3) 0.5949(4) 0.4826(3)
C1 C 0.5779(4) 0.6100(4) 0.4746(5)
C2 C 0.5648(4) 0.6202(5) 0.4611(5)
C4 C 0.5707(5) 0.6369(4) 0.4520(5)
H4 H 0.5825 0.6417 0.4565
C9 C 0.6002(4) 0.7037(5) 0.4258(5)
H9 H 0.6065 0.6966 0.4356
C10 C 0.6063(5) 0.7210(4) 0.4182(5)
H10 H 0.6175 0.7267 0.4232
C15 C 0.6340(5) 0.7897(5) 0.3874(5)
H15 H 0.6423 0.7830 0.3958
C16 C 0.6407(5) 0.8074(5) 0.3814(5)
H16 H 0.6512 0.8126 0.3882
O1 O 0.8818(3) 0.9826(3) 0.4069(4)
O2 O 0.9051(4) 0.9826(3) 0.4305(3)
C1 C 0.8900(4) 0.9746(5) 0.4221(4)
C2 C 0.8798(5) 0.9611(5) 0.4352(4)
C4 C 0.8631(4) 0.9520(5) 0.4293(5)
H4 H 0.8583 0.9565 0.4175
C9 C 0.7963(5) 0.9258(5) 0.3998(4)
H9 H 0.8034 0.9356 0.3935
C10 C 0.7790(4) 0.9182(5) 0.3937(5)
H10 H 0.7733 0.9232 0.3825
C15 C 0.7103(5) 0.8874(5) 0.3660(5)
H15 H 0.7170 0.8958 0.3577
C16 C 0.6926(5) 0.8814(5) 0.3593(5)
H16 H 0.6874 0.8882 0.3488
O1 O 0.5174(3) 0.9069(4) 0.1182(3)
O2 O 0.5174(3) 0.9305(3) 0.0949(4)
C1 C 0.5254(5) 0.9221(4) 0.1100(4)
C2 C 0.5389(5) 0.9352(4) 0.1202(5)
C4 C 0.5480(5) 0.9293(5) 0.1369(4)
H4 H 0.5435 0.9175 0.1417
C9 C 0.5742(5) 0.8998(4) 0.2037(5)
H9 H 0.5644 0.8935 0.1966
C10 C 0.5818(5) 0.8937(5) 0.2210(4)
H10 H 0.5768 0.8825 0.2267
C15 C 0.6126(5) 0.8660(5) 0.2897(5)
H15 H 0.6042 0.8577 0.2830
C16 C 0.6186(5) 0.8593(5) 0.3074(5)
H16 H 0.6118 0.8488 0.3126
Cu1 Cu 0.60340(12) 0.5000 0.39660(12)
Cu2 Cu 0.58212(12) 0.5000 0.41788(12)
Cu1 Cu 0.5000 0.89660(12) 0.10340(12)
Cu1 Cu 0.60340(12) 1.0000 0.10340(12)
Cu1 Cu 1.0000 0.60340(12) 0.10340(12)
Cu1 Cu 0.89660(12) 0.5000 0.10340(12)
Cu1 Cu 0.89660(12) 0.89660(12) 0.5000
Cu1 Cu 1.0000 0.89660(12) 0.39660(12)
Cu1 Cu 0.89660(12) 1.0000 0.39660(12)
Cu2 Cu 0.5000 0.91788(12) 0.08212(12)
Cu2 Cu 0.58212(12) 1.0000 0.08212(12)
Cu2 Cu 1.0000 0.58212(12) 0.08212(12)
Cu2 Cu 0.91788(12) 0.5000 0.08212(12)
Cu2 Cu 0.91788(12) 0.91788(12) 0.5000
Cu2 Cu 1.0000 0.91788(12) 0.41788(12)
Cu2 Cu 0.91788(12) 1.0000 0.41788(12)
O1 O 0.5931(4) 0.5174(3) 0.3818(3)
O1 O 0.5931(4) 0.6182(3) 0.5174(3)
O1 O 0.6182(3) 0.4826(3) 0.4069(4)
O1 O 0.4826(3) 0.5931(4) 0.3818(3)
O1 O 0.6182(3) 0.5931(4) 0.5174(3)
O1 O 0.4826(3) 0.6182(3) 0.4069(4)
O1 O 0.5931(4) 0.4826(3) 0.3818(3)
O1 O 0.5174(3) 0.5931(4) 0.3818(3)
O2 O 0.5695(3) 0.5174(3) 0.4051(4)
O2 O 0.5695(3) 0.5949(4) 0.5174(3)
O2 O 0.5949(4) 0.4826(3) 0.4305(3)
O2 O 0.4826(3) 0.5695(3) 0.4051(4)
O2 O 0.5949(4) 0.5695(3) 0.5174(3)
O2 O 0.4826(3) 0.5949(4) 0.4305(3)
O2 O 0.5695(3) 0.4826(3) 0.4051(4)
O2 O 0.5174(3) 0.5695(3) 0.4051(4)
Cu1 Cu 0.39660(12) 0.39660(12) 0.5000
Cu2 Cu 0.41788(12) 0.41788(12) 0.5000
O1 O 0.3818(3) 0.4069(4) 0.4826(3)
O2 O 0.4051(4) 0.4305(3) 0.4826(3)
C1 C 0.3900(4) 0.4221(4) 0.4746(5)
C2 C 0.3798(5) 0.4352(4) 0.4611(5)
C3 C 0.3866(7) 0.4507(5) 0.4507(5)
H3 H 0.3986 0.4552 0.4552
C4 C 0.3631(4) 0.4293(5) 0.4520(5)
H4 H 0.3583 0.4175 0.4565
C5 C 0.3520(8) 0.4375(6) 0.4375(6)
C6 C 0.3336(8) 0.4308(6) 0.4308(6)
C7 C 0.3179(8) 0.4256(6) 0.4256(6)
C8 C 0.3015(8) 0.4167(6) 0.4167(6)
C9 C 0.2963(5) 0.3998(4) 0.4258(5)
H9 H 0.3034 0.3935 0.4356
C10 C 0.2790(4) 0.3937(5) 0.4182(5)
H10 H 0.2733 0.3825 0.4232
C11 C 0.2700(8) 0.4035(6) 0.4035(6)
C12 C 0.2518(9) 0.3967(5) 0.3967(5)
C13 C 0.2386(8) 0.3886(6) 0.3886(6)
C14 C 0.2196(8) 0.3829(6) 0.3829(6)
C15 C 0.2103(5) 0.3660(5) 0.3874(5)
H15 H 0.2170 0.3577 0.3958
C16 C 0.1926(5) 0.3593(5) 0.3814(5)
H16 H 0.1874 0.3488 0.3882
C17 C 0.1817(8) 0.3664(6) 0.3664(6)
C18 C 0.1634(8) 0.3597(7) 0.3597(7)
C19 C 0.1549(6) 0.3701(7) 0.3451(6)
H19 H 0.1586 0.3826 0.3414
O1 O 0.0931(4) 0.4826(3) 0.1182(3)
O2 O 0.0695(3) 0.4826(3) 0.0949(4)
C1 C 0.0779(4) 0.4746(5) 0.1100(4)
C2 C 0.0648(4) 0.4611(5) 0.1202(5)
C3 C 0.0493(5) 0.4507(5) 0.1134(7)
H3 H 0.0448 0.4552 0.1014
C4 C 0.0707(5) 0.4520(5) 0.1369(4)
H4 H 0.0825 0.4565 0.1417
C5 C 0.0625(6) 0.4375(6) 0.1480(8)
C6 C 0.0692(6) 0.4308(6) 0.1664(8)
C7 C 0.0744(6) 0.4256(6) 0.1821(8)
C8 C 0.0833(6) 0.4167(6) 0.1985(8)
C9 C 0.1002(4) 0.4258(5) 0.2037(5)
H9 H 0.1065 0.4356 0.1966
C10 C 0.1063(5) 0.4182(5) 0.2210(4)
H10 H 0.1175 0.4232 0.2267
C11 C 0.0965(6) 0.4035(6) 0.2300(8)
C12 C 0.1033(5) 0.3967(5) 0.2482(9)
C13 C 0.1114(6) 0.3886(6) 0.2614(8)
C14 C 0.1171(6) 0.3829(6) 0.2804(8)
C15 C 0.1340(5) 0.3874(5) 0.2897(5)
H15 H 0.1423 0.3958 0.2830
C16 C 0.1407(5) 0.3814(5) 0.3074(5)
H16 H 0.1512 0.3882 0.3126
C17 C 0.1336(6) 0.3664(6) 0.3183(8)
C18 C 0.1403(7) 0.3597(7) 0.3366(8)
C19 C 0.1299(7) 0.3451(6) 0.3451(6)
H19 H 0.1174 0.3414 0.3414
O1 O 0.0174(3) 0.1182(3) 0.4069(4)
O2 O 0.0174(3) 0.0949(4) 0.4305(3)
C1 C 0.0254(5) 0.1100(4) 0.4221(4)
C2 C 0.0389(5) 0.1202(5) 0.4352(4)
C3 C 0.0493(5) 0.1134(7) 0.4507(5)
H3 H 0.0448 0.1014 0.4552
C4 C 0.0480(5) 0.1369(4) 0.4293(5)
H4 H 0.0435 0.1417 0.4175
C5 C 0.0625(6) 0.1480(8) 0.4375(6)
C6 C 0.0692(6) 0.1664(8) 0.4308(6)
C7 C 0.0744(6) 0.1821(8) 0.4256(6)
C8 C 0.0833(6) 0.1985(8) 0.4167(6)
C9 C 0.0742(5) 0.2037(5) 0.3998(4)
H9 H 0.0644 0.1966 0.3935
C10 C 0.0818(5) 0.2210(4) 0.3937(5)
H10 H 0.0768 0.2267 0.3825
C11 C 0.0965(6) 0.2300(8) 0.4035(6)
C12 C 0.1033(5) 0.2482(9) 0.3967(5)
C13 C 0.1114(6) 0.2614(8) 0.3886(6)
C14 C 0.1171(6) 0.2804(8) 0.3829(6)
C15 C 0.1126(5) 0.2897(5) 0.3660(5)
H15 H 0.1042 0.2830 0.3577
C16 C 0.1186(5) 0.3074(5) 0.3593(5)
H16 H 0.1118 0.3126 0.3488
C17 C 0.1336(6) 0.3183(8) 0.3664(6)
C18 C 0.1403(7) 0.3366(8) 0.3597(7)
C19 C 0.1549(6) 0.3451(6) 0.3701(7)
H19 H 0.1586 0.3414 0.3826
O1 O 0.3818(3) 0.4826(3) 0.4069(4)
O2 O 0.4051(4) 0.4826(3) 0.4305(3)
C1 C 0.3900(4) 0.4746(5) 0.4221(4)
C2 C 0.3798(5) 0.4611(5) 0.4352(4)
C4 C 0.3631(4) 0.4520(5) 0.4293(5)
H4 H 0.3583 0.4565 0.4175
C9 C 0.2963(5) 0.4258(5) 0.3998(4)
H9 H 0.3034 0.4356 0.3935
C10 C 0.2790(4) 0.4182(5) 0.3937(5)
H10 H 0.2733 0.4232 0.3825
C15 C 0.2103(5) 0.3874(5) 0.3660(5)
H15 H 0.2170 0.3958 0.3577
C16 C 0.1926(5) 0.3814(5) 0.3593(5)
H16 H 0.1874 0.3882 0.3488
O1 O 0.0174(3) 0.4069(4) 0.1182(3)
O2 O 0.0174(3) 0.4305(3) 0.0949(4)
C1 C 0.0254(5) 0.4221(4) 0.1100(4)
C2 C 0.0389(5) 0.4352(4) 0.1202(5)
C4 C 0.0480(5) 0.4293(5) 0.1369(4)
H4 H 0.0435 0.4175 0.1417
C9 C 0.0742(5) 0.3998(4) 0.2037(5)
H9 H 0.0644 0.3935 0.1966
C10 C 0.0818(5) 0.3937(5) 0.2210(4)
H10 H 0.0768 0.3825 0.2267
C15 C 0.1126(5) 0.3660(5) 0.2897(5)
H15 H 0.1042 0.3577 0.2830
C16 C 0.1186(5) 0.3593(5) 0.3074(5)
H16 H 0.1118 0.3488 0.3126
O1 O 0.0931(4) 0.1182(3) 0.4826(3)
O2 O 0.0695(3) 0.0949(4) 0.4826(3)
C1 C 0.0779(4) 0.1100(4) 0.4746(5)
C2 C 0.0648(4) 0.1202(5) 0.4611(5)
C4 C 0.0707(5) 0.1369(4) 0.4520(5)
H4 H 0.0825 0.1417 0.4565
C9 C 0.1002(4) 0.2037(5) 0.4258(5)
H9 H 0.1065 0.1966 0.4356
C10 C 0.1063(5) 0.2210(4) 0.4182(5)
H10 H 0.1175 0.2267 0.4232
C15 C 0.1340(5) 0.2897(5) 0.3874(5)
H15 H 0.1423 0.2830 0.3958
C16 C 0.1407(5) 0.3074(5) 0.3814(5)
H16 H 0.1512 0.3126 0.3882
Cu1 Cu 0.5000 0.39660(12) 0.39660(12)
Cu2 Cu 0.5000 0.41788(12) 0.41788(12)
O1 O 0.4826(3) 0.3818(3) 0.4069(4)
O2 O 0.4826(3) 0.4051(4) 0.4305(3)
C1 C 0.4746(5) 0.3900(4) 0.4221(4)
C2 C 0.4611(5) 0.3798(5) 0.4352(4)
C3 C 0.4507(5) 0.3866(7) 0.4507(5)
H3 H 0.4552 0.3986 0.4552
C4 C 0.4520(5) 0.3631(4) 0.4293(5)
H4 H 0.4565 0.3583 0.4175
C5 C 0.4375(6) 0.3520(8) 0.4375(6)
C6 C 0.4308(6) 0.3336(8) 0.4308(6)
C7 C 0.4256(6) 0.3179(8) 0.4256(6)
C8 C 0.4167(6) 0.3015(8) 0.4167(6)
C9 C 0.4258(5) 0.2963(5) 0.3998(4)
H9 H 0.4356 0.3034 0.3935
C10 C 0.4182(5) 0.2790(4) 0.3937(5)
H10 H 0.4232 0.2733 0.3825
C11 C 0.4035(6) 0.2700(8) 0.4035(6)
C12 C 0.3967(5) 0.2518(9) 0.3967(5)
C13 C 0.3886(6) 0.2386(8) 0.3886(6)
C14 C 0.3829(6) 0.2196(8) 0.3829(6)
C15 C 0.3874(5) 0.2103(5) 0.3660(5)
H15 H 0.3958 0.2170 0.3577
C16 C 0.3814(5) 0.1926(5) 0.3593(5)
H16 H 0.3882 0.1874 0.3488
C17 C 0.3664(6) 0.1817(8) 0.3664(6)
C18 C 0.3597(7) 0.1634(8) 0.3597(7)
C19 C 0.3451(6) 0.1549(6) 0.3701(7)
H19 H 0.3414 0.1586 0.3826
O1 O 0.1182(3) 0.0931(4) 0.4826(3)
O2 O 0.0949(4) 0.0695(3) 0.4826(3)
C1 C 0.1100(4) 0.0779(4) 0.4746(5)
C2 C 0.1202(5) 0.0648(4) 0.4611(5)
C3 C 0.1134(7) 0.0493(5) 0.4507(5)
H3 H 0.1014 0.0448 0.4552
C4 C 0.1369(4) 0.0707(5) 0.4520(5)
H4 H 0.1417 0.0825 0.4565
C5 C 0.1480(8) 0.0625(6) 0.4375(6)
C6 C 0.1664(8) 0.0692(6) 0.4308(6)
C7 C 0.1821(8) 0.0744(6) 0.4256(6)
C8 C 0.1985(8) 0.0833(6) 0.4167(6)
C9 C 0.2037(5) 0.1002(4) 0.4258(5)
H9 H 0.1966 0.1065 0.4356
C10 C 0.2210(4) 0.1063(5) 0.4182(5)
H10 H 0.2267 0.1175 0.4232
C11 C 0.2300(8) 0.0965(6) 0.4035(6)
C12 C 0.2482(9) 0.1033(5) 0.3967(5)
C13 C 0.2614(8) 0.1114(6) 0.3886(6)
C14 C 0.2804(8) 0.1171(6) 0.3829(6)
C15 C 0.2897(5) 0.1340(5) 0.3874(5)
H15 H 0.2830 0.1423 0.3958
C16 C 0.3074(5) 0.1407(5) 0.3814(5)
H16 H 0.3126 0.1512 0.3882
C17 C 0.3183(8) 0.1336(6) 0.3664(6)
C18 C 0.3366(8) 0.1403(7) 0.3597(7)
C19 C 0.3451(6) 0.1299(7) 0.3451(6)
H19 H 0.3414 0.1174 0.3414
O1 O 0.4069(4) 0.0174(3) 0.1182(3)
O2 O 0.4305(3) 0.0174(3) 0.0949(4)
C1 C 0.4221(4) 0.0254(5) 0.1100(4)
C2 C 0.4352(4) 0.0389(5) 0.1202(5)
C3 C 0.4507(5) 0.0493(5) 0.1134(7)
H3 H 0.4552 0.0448 0.1014
C4 C 0.4293(5) 0.0480(5) 0.1369(4)
H4 H 0.4175 0.0435 0.1417
C5 C 0.4375(6) 0.0625(6) 0.1480(8)
C6 C 0.4308(6) 0.0692(6) 0.1664(8)
C7 C 0.4256(6) 0.0744(6) 0.1821(8)
C8 C 0.4167(6) 0.0833(6) 0.1985(8)
C9 C 0.3998(4) 0.0742(5) 0.2037(5)
H9 H 0.3935 0.0644 0.1966
C10 C 0.3937(5) 0.0818(5) 0.2210(4)
H10 H 0.3825 0.0768 0.2267
C11 C 0.4035(6) 0.0965(6) 0.2300(8)
C12 C 0.3967(5) 0.1033(5) 0.2482(9)
C13 C 0.3886(6) 0.1114(6) 0.2614(8)
C14 C 0.3829(6) 0.1171(6) 0.2804(8)
C15 C 0.3660(5) 0.1126(5) 0.2897(5)
H15 H 0.3577 0.1042 0.2830
C16 C 0.3593(5) 0.1186(5) 0.3074(5)
H16 H 0.3488 0.1118 0.3126
C17 C 0.3664(6) 0.1336(6) 0.3183(8)
C18 C 0.3597(7) 0.1403(7) 0.3366(8)
C19 C 0.3701(7) 0.1549(6) 0.3451(6)
H19 H 0.3826 0.1586 0.3414
O1 O 0.4069(4) 0.3818(3) 0.4826(3)
O2 O 0.4305(3) 0.4051(4) 0.4826(3)
C1 C 0.4221(4) 0.3900(4) 0.4746(5)
C2 C 0.4352(4) 0.3798(5) 0.4611(5)
C4 C 0.4293(5) 0.3631(4) 0.4520(5)
H4 H 0.4175 0.3583 0.4565
C9 C 0.3998(4) 0.2963(5) 0.4258(5)
H9 H 0.3935 0.3034 0.4356
C10 C 0.3937(5) 0.2790(4) 0.4182(5)
H10 H 0.3825 0.2733 0.4232
C15 C 0.3660(5) 0.2103(5) 0.3874(5)
H15 H 0.3577 0.2170 0.3958
C16 C 0.3593(5) 0.1926(5) 0.3814(5)
H16 H 0.3488 0.1874 0.3882
O1 O 0.1182(3) 0.0174(3) 0.4069(4)
O2 O 0.0949(4) 0.0174(3) 0.4305(3)
C1 C 0.1100(4) 0.0254(5) 0.4221(4)
C2 C 0.1202(5) 0.0389(5) 0.4352(4)
C4 C 0.1369(4) 0.0480(5) 0.4293(5)
H4 H 0.1417 0.0435 0.4175
C9 C 0.2037(5) 0.0742(5) 0.3998(4)
H9 H 0.1966 0.0644 0.3935
C10 C 0.2210(4) 0.0818(5) 0.3937(5)
H10 H 0.2267 0.0768 0.3825
C15 C 0.2897(5) 0.1126(5) 0.3660(5)
H15 H 0.2830 0.1042 0.3577
C16 C 0.3074(5) 0.1186(5) 0.3593(5)
H16 H 0.3126 0.1118 0.3488
O1 O 0.4826(3) 0.0931(4) 0.1182(3)
O2 O 0.4826(3) 0.0695(3) 0.0949(4)
C1 C 0.4746(5) 0.0779(4) 0.1100(4)
C2 C 0.4611(5) 0.0648(4) 0.1202(5)
C4 C 0.4520(5) 0.0707(5) 0.1369(4)
H4 H 0.4565 0.0825 0.1417
C9 C 0.4258(5) 0.1002(4) 0.2037(5)
H9 H 0.4356 0.1065 0.1966
C10 C 0.4182(5) 0.1063(5) 0.2210(4)
H10 H 0.4232 0.1175 0.2267
C15 C 0.3874(5) 0.1340(5) 0.2897(5)
H15 H 0.3958 0.1423 0.2830
C16 C 0.3814(5) 0.1407(5) 0.3074(5)
H16 H 0.3882 0.1512 0.3126
Cu1 Cu 0.39660(12) 0.5000 0.39660(12)
Cu2 Cu 0.41788(12) 0.5000 0.41788(12)
Cu1 Cu 0.5000 0.10340(12) 0.10340(12)
Cu1 Cu 0.39660(12) 0.0000 0.10340(12)
Cu1 Cu 0.0000 0.39660(12) 0.10340(12)
Cu1 Cu 0.10340(12) 0.5000 0.10340(12)
Cu1 Cu 0.10340(12) 0.10340(12) 0.5000
Cu1 Cu 0.0000 0.10340(12) 0.39660(12)
Cu1 Cu 0.10340(12) 0.0000 0.39660(12)
Cu2 Cu 0.5000 0.08212(12) 0.08212(12)
Cu2 Cu 0.41788(12) 0.0000 0.08212(12)
Cu2 Cu 0.0000 0.41788(12) 0.08212(12)
Cu2 Cu 0.08212(12) 0.5000 0.08212(12)
Cu2 Cu 0.08212(12) 0.08212(12) 0.5000
Cu2 Cu 0.0000 0.08212(12) 0.41788(12)
Cu2 Cu 0.08212(12) 0.0000 0.41788(12)
O1 O 0.4069(4) 0.4826(3) 0.3818(3)
O1 O 0.4069(4) 0.3818(3) 0.5174(3)
O1 O 0.3818(3) 0.5174(3) 0.4069(4)
O1 O 0.5174(3) 0.4069(4) 0.3818(3)
O1 O 0.3818(3) 0.4069(4) 0.5174(3)
O1 O 0.5174(3) 0.3818(3) 0.4069(4)
O1 O 0.4069(4) 0.5174(3) 0.3818(3)
O1 O 0.4826(3) 0.4069(4) 0.3818(3)
O2 O 0.4305(3) 0.4826(3) 0.4051(4)
O2 O 0.4305(3) 0.4051(4) 0.5174(3)
O2 O 0.4051(4) 0.5174(3) 0.4305(3)
O2 O 0.5174(3) 0.4305(3) 0.4051(4)
O2 O 0.4051(4) 0.4305(3) 0.5174(3)
O2 O 0.5174(3) 0.4051(4) 0.4305(3)
O2 O 0.4305(3) 0.5174(3) 0.4051(4)
O2 O 0.4826(3) 0.4305(3) 0.4051(4)
C1 C 0.5779(4) 0.4746(5) 0.6100(4)
C2 C 0.5648(4) 0.4611(5) 0.6202(5)
C3 C 0.5493(5) 0.4507(5) 0.6134(7)
H3 H 0.5448 0.4552 0.6014
C4 C 0.5707(5) 0.4520(5) 0.6369(4)
H4 H 0.5825 0.4565 0.6417
C5 C 0.5625(6) 0.4375(6) 0.6480(8)
C6 C 0.5692(6) 0.4308(6) 0.6664(8)
C7 C 0.5744(6) 0.4256(6) 0.6821(8)
C8 C 0.5833(6) 0.4167(6) 0.6985(8)
C9 C 0.6002(4) 0.4258(5) 0.7037(5)
H9 H 0.6065 0.4356 0.6966
C10 C 0.6063(5) 0.4182(5) 0.7210(4)
H10 H 0.6175 0.4232 0.7267
C11 C 0.5965(6) 0.4035(6) 0.7300(8)
C12 C 0.6033(5) 0.3967(5) 0.7482(9)
C13 C 0.6114(6) 0.3886(6) 0.7614(8)
C14 C 0.6171(6) 0.3829(6) 0.7804(8)
C15 C 0.6340(5) 0.3874(5) 0.7897(5)
H15 H 0.6423 0.3958 0.7830
C16 C 0.6407(5) 0.3814(5) 0.8074(5)
H16 H 0.6512 0.3882 0.8126
C17 C 0.6336(6) 0.3664(6) 0.8183(8)
C18 C 0.6403(7) 0.3597(7) 0.8366(8)
C19 C 0.6299(7) 0.3451(6) 0.8451(6)
H19 H 0.6174 0.3414 0.8414
O1 O 0.5174(3) 0.1182(3) 0.9069(4)
O2 O 0.5174(3) 0.0949(4) 0.9305(3)
C1 C 0.5254(5) 0.1100(4) 0.9221(4)
C2 C 0.5389(5) 0.1202(5) 0.9352(4)
C3 C 0.5493(5) 0.1134(7) 0.9507(5)
H3 H 0.5448 0.1014 0.9552
C4 C 0.5480(5) 0.1369(4) 0.9293(5)
H4 H 0.5435 0.1417 0.9175
C5 C 0.5625(6) 0.1480(8) 0.9375(6)
C6 C 0.5692(6) 0.1664(8) 0.9308(6)
C7 C 0.5744(6) 0.1821(8) 0.9256(6)
C8 C 0.5833(6) 0.1985(8) 0.9167(6)
C9 C 0.5742(5) 0.2037(5) 0.8998(4)
H9 H 0.5644 0.1966 0.8935
C10 C 0.5818(5) 0.2210(4) 0.8937(5)
H10 H 0.5768 0.2267 0.8825
C11 C 0.5965(6) 0.2300(8) 0.9035(6)
C12 C 0.6033(5) 0.2482(9) 0.8967(5)
C13 C 0.6114(6) 0.2614(8) 0.8886(6)
C14 C 0.6171(6) 0.2804(8) 0.8829(6)
C15 C 0.6126(5) 0.2897(5) 0.8660(5)
H15 H 0.6042 0.2830 0.8577
C16 C 0.6186(5) 0.3074(5) 0.8593(5)
H16 H 0.6118 0.3126 0.8488
C17 C 0.6336(6) 0.3183(8) 0.8664(6)
C18 C 0.6403(7) 0.3366(8) 0.8597(7)
C19 C 0.6549(6) 0.3451(6) 0.8701(7)
H19 H 0.6586 0.3414 0.8826
O1 O 0.8818(3) 0.4069(4) 0.9826(3)
O2 O 0.9051(4) 0.4305(3) 0.9826(3)
C1 C 0.8900(4) 0.4221(4) 0.9746(5)
C2 C 0.8798(5) 0.4352(4) 0.9611(5)
C3 C 0.8866(7) 0.4507(5) 0.9507(5)
H3 H 0.8986 0.4552 0.9552
C4 C 0.8631(4) 0.4293(5) 0.9520(5)
H4 H 0.8583 0.4175 0.9565
C5 C 0.8520(8) 0.4375(6) 0.9375(6)
C6 C 0.8336(8) 0.4308(6) 0.9308(6)
C7 C 0.8179(8) 0.4256(6) 0.9256(6)
C8 C 0.8015(8) 0.4167(6) 0.9167(6)
C9 C 0.7963(5) 0.3998(4) 0.9258(5)
H9 H 0.8034 0.3935 0.9356
C10 C 0.7790(4) 0.3937(5) 0.9182(5)
H10 H 0.7733 0.3825 0.9232
C11 C 0.7700(8) 0.4035(6) 0.9035(6)
C12 C 0.7518(9) 0.3967(5) 0.8967(5)
C13 C 0.7386(8) 0.3886(6) 0.8886(6)
C14 C 0.7196(8) 0.3829(6) 0.8829(6)
C15 C 0.7103(5) 0.3660(5) 0.8874(5)
H15 H 0.7170 0.3577 0.8958
C16 C 0.6926(5) 0.3593(5) 0.8814(5)
H16 H 0.6874 0.3488 0.8882
C17 C 0.6817(8) 0.3664(6) 0.8664(6)
C18 C 0.6634(8) 0.3597(7) 0.8597(7)
C19 C 0.6549(6) 0.3701(7) 0.8451(6)
H19 H 0.6586 0.3826 0.8414
C1 C 0.5254(5) 0.4221(4) 0.6100(4)
C2 C 0.5389(5) 0.4352(4) 0.6202(5)
C4 C 0.5480(5) 0.4293(5) 0.6369(4)
H4 H 0.5435 0.4175 0.6417
C9 C 0.5742(5) 0.3998(4) 0.7037(5)
H9 H 0.5644 0.3935 0.6966
C10 C 0.5818(5) 0.3937(5) 0.7210(4)
H10 H 0.5768 0.3825 0.7267
C15 C 0.6126(5) 0.3660(5) 0.7897(5)
H15 H 0.6042 0.3577 0.7830
C16 C 0.6186(5) 0.3593(5) 0.8074(5)
H16 H 0.6118 0.3488 0.8126
O1 O 0.5931(4) 0.1182(3) 0.9826(3)
O2 O 0.5695(3) 0.0949(4) 0.9826(3)
C1 C 0.5779(4) 0.1100(4) 0.9746(5)
C2 C 0.5648(4) 0.1202(5) 0.9611(5)
C4 C 0.5707(5) 0.1369(4) 0.9520(5)
H4 H 0.5825 0.1417 0.9565
C9 C 0.6002(4) 0.2037(5) 0.9258(5)
H9 H 0.6065 0.1966 0.9356
C10 C 0.6063(5) 0.2210(4) 0.9182(5)
H10 H 0.6175 0.2267 0.9232
C15 C 0.6340(5) 0.2897(5) 0.8874(5)
H15 H 0.6423 0.2830 0.8958
C16 C 0.6407(5) 0.3074(5) 0.8814(5)
H16 H 0.6512 0.3126 0.8882
O1 O 0.8818(3) 0.4826(3) 0.9069(4)
O2 O 0.9051(4) 0.4826(3) 0.9305(3)
C1 C 0.8900(4) 0.4746(5) 0.9221(4)
C2 C 0.8798(5) 0.4611(5) 0.9352(4)
C4 C 0.8631(4) 0.4520(5) 0.9293(5)
H4 H 0.8583 0.4565 0.9175
C9 C 0.7963(5) 0.4258(5) 0.8998(4)
H9 H 0.8034 0.4356 0.8935
C10 C 0.7790(4) 0.4182(5) 0.8937(5)
H10 H 0.7733 0.4232 0.8825
C15 C 0.7103(5) 0.3874(5) 0.8660(5)
H15 H 0.7170 0.3958 0.8577
C16 C 0.6926(5) 0.3814(5) 0.8593(5)
H16 H 0.6874 0.3882 0.8488
Cu1 Cu 0.89660(12) 0.39660(12) 1.0000
Cu1 Cu 0.60340(12) 0.10340(12) 1.0000
Cu2 Cu 0.91788(12) 0.41788(12) 1.0000
Cu2 Cu 0.58212(12) 0.08212(12) 1.0000
C1 C 0.5779(4) 0.5254(5) 0.3900(4)
C2 C 0.5648(4) 0.5389(5) 0.3798(5)
C3 C 0.5493(5) 0.5493(5) 0.3866(7)
H3 H 0.5448 0.5448 0.3986
C4 C 0.5707(5) 0.5480(5) 0.3631(4)
H4 H 0.5825 0.5435 0.3583
C5 C 0.5625(6) 0.5625(6) 0.3520(8)
C6 C 0.5692(6) 0.5692(6) 0.3336(8)
C7 C 0.5744(6) 0.5744(6) 0.3179(8)
C8 C 0.5833(6) 0.5833(6) 0.3015(8)
C9 C 0.6002(4) 0.5742(5) 0.2963(5)
H9 H 0.6065 0.5644 0.3034
C10 C 0.6063(5) 0.5818(5) 0.2790(4)
H10 H 0.6175 0.5768 0.2733
C11 C 0.5965(6) 0.5965(6) 0.2700(8)
C12 C 0.6033(5) 0.6033(5) 0.2518(9)
C13 C 0.6114(6) 0.6114(6) 0.2386(8)
C14 C 0.6171(6) 0.6171(6) 0.2196(8)
C15 C 0.6340(5) 0.6126(5) 0.2103(5)
H15 H 0.6423 0.6042 0.2170
C16 C 0.6407(5) 0.6186(5) 0.1926(5)
H16 H 0.6512 0.6118 0.1874
C17 C 0.6336(6) 0.6336(6) 0.1817(8)
C18 C 0.6403(7) 0.6403(7) 0.1634(8)
C19 C 0.6299(7) 0.6549(6) 0.1549(6)
H19 H 0.6174 0.6586 0.1586
O1 O 0.5174(3) 0.8818(3) 0.0931(4)
O2 O 0.5174(3) 0.9051(4) 0.0695(3)
C1 C 0.5254(5) 0.8900(4) 0.0779(4)
C2 C 0.5389(5) 0.8798(5) 0.0648(4)
C3 C 0.5493(5) 0.8866(7) 0.0493(5)
H3 H 0.5448 0.8986 0.0448
C4 C 0.5480(5) 0.8631(4) 0.0707(5)
H4 H 0.5435 0.8583 0.0825
C5 C 0.5625(6) 0.8520(8) 0.0625(6)
C6 C 0.5692(6) 0.8336(8) 0.0692(6)
C7 C 0.5744(6) 0.8179(8) 0.0744(6)
C8 C 0.5833(6) 0.8015(8) 0.0833(6)
C9 C 0.5742(5) 0.7963(5) 0.1002(4)
H9 H 0.5644 0.8034 0.1065
C10 C 0.5818(5) 0.7790(4) 0.1063(5)
H10 H 0.5768 0.7733 0.1175
C11 C 0.5965(6) 0.7700(8) 0.0965(6)
C12 C 0.6033(5) 0.7518(9) 0.1033(5)
C13 C 0.6114(6) 0.7386(8) 0.1114(6)
C14 C 0.6171(6) 0.7196(8) 0.1171(6)
C15 C 0.6126(5) 0.7103(5) 0.1340(5)
H15 H 0.6042 0.7170 0.1423
C16 C 0.6186(5) 0.6926(5) 0.1407(5)
H16 H 0.6118 0.6874 0.1512
C17 C 0.6336(6) 0.6817(8) 0.1336(6)
C18 C 0.6403(7) 0.6634(8) 0.1403(7)
C19 C 0.6549(6) 0.6549(6) 0.1299(7)
H19 H 0.6586 0.6586 0.1174
O1 O 0.8818(3) 0.5931(4) 0.0174(3)
O2 O 0.9051(4) 0.5695(3) 0.0174(3)
C1 C 0.8900(4) 0.5779(4) 0.0254(5)
C2 C 0.8798(5) 0.5648(4) 0.0389(5)
C3 C 0.8866(7) 0.5493(5) 0.0493(5)
H3 H 0.8986 0.5448 0.0448
C4 C 0.8631(4) 0.5707(5) 0.0480(5)
H4 H 0.8583 0.5825 0.0435
C5 C 0.8520(8) 0.5625(6) 0.0625(6)
C6 C 0.8336(8) 0.5692(6) 0.0692(6)
C7 C 0.8179(8) 0.5744(6) 0.0744(6)
C8 C 0.8015(8) 0.5833(6) 0.0833(6)
C9 C 0.7963(5) 0.6002(4) 0.0742(5)
H9 H 0.8034 0.6065 0.0644
C10 C 0.7790(4) 0.6063(5) 0.0818(5)
H10 H 0.7733 0.6175 0.0768
C11 C 0.7700(8) 0.5965(6) 0.0965(6)
C12 C 0.7518(9) 0.6033(5) 0.1033(5)
C13 C 0.7386(8) 0.6114(6) 0.1114(6)
C14 C 0.7196(8) 0.6171(6) 0.1171(6)
C15 C 0.7103(5) 0.6340(5) 0.1126(5)
H15 H 0.7170 0.6423 0.1042
C16 C 0.6926(5) 0.6407(5) 0.1186(5)
H16 H 0.6874 0.6512 0.1118
C17 C 0.6817(8) 0.6336(6) 0.1336(6)
C18 C 0.6634(8) 0.6403(7) 0.1403(7)
C19 C 0.6549(6) 0.6299(7) 0.1549(6)
H19 H 0.6586 0.6174 0.1586
C1 C 0.5254(5) 0.5779(4) 0.3900(4)
C2 C 0.5389(5) 0.5648(4) 0.3798(5)
C4 C 0.5480(5) 0.5707(5) 0.3631(4)
H4 H 0.5435 0.5825 0.3583
C9 C 0.5742(5) 0.6002(4) 0.2963(5)
H9 H 0.5644 0.6065 0.3034
C10 C 0.5818(5) 0.6063(5) 0.2790(4)
H10 H 0.5768 0.6175 0.2733
C15 C 0.6126(5) 0.6340(5) 0.2103(5)
H15 H 0.6042 0.6423 0.2170
C16 C 0.6186(5) 0.6407(5) 0.1926(5)
H16 H 0.6118 0.6512 0.1874
O1 O 0.5931(4) 0.8818(3) 0.0174(3)
O2 O 0.5695(3) 0.9051(4) 0.0174(3)
C1 C 0.5779(4) 0.8900(4) 0.0254(5)
C2 C 0.5648(4) 0.8798(5) 0.0389(5)
C4 C 0.5707(5) 0.8631(4) 0.0480(5)
H4 H 0.5825 0.8583 0.0435
C9 C 0.6002(4) 0.7963(5) 0.0742(5)
H9 H 0.6065 0.8034 0.0644
C10 C 0.6063(5) 0.7790(4) 0.0818(5)
H10 H 0.6175 0.7733 0.0768
C15 C 0.6340(5) 0.7103(5) 0.1126(5)
H15 H 0.6423 0.7170 0.1042
C16 C 0.6407(5) 0.6926(5) 0.1186(5)
H16 H 0.6512 0.6874 0.1118
O1 O 0.8818(3) 0.5174(3) 0.0931(4)
O2 O 0.9051(4) 0.5174(3) 0.0695(3)
C1 C 0.8900(4) 0.5254(5) 0.0779(4)
C2 C 0.8798(5) 0.5389(5) 0.0648(4)
C4 C 0.8631(4) 0.5480(5) 0.0707(5)
H4 H 0.8583 0.5435 0.0825
C9 C 0.7963(5) 0.5742(5) 0.1002(4)
H9 H 0.8034 0.5644 0.1065
C10 C 0.7790(4) 0.5818(5) 0.1063(5)
H10 H 0.7733 0.5768 0.1175
C15 C 0.7103(5) 0.6126(5) 0.1340(5)
H15 H 0.7170 0.6042 0.1423
C16 C 0.6926(5) 0.6186(5) 0.1407(5)
H16 H 0.6874 0.6118 0.1512
Cu1 Cu 0.89660(12) 0.60340(12) 0.0000
Cu1 Cu 0.60340(12) 0.89660(12) 0.0000
Cu2 Cu 0.91788(12) 0.58212(12) 0.0000
Cu2 Cu 0.58212(12) 0.91788(12) 0.0000
C1 C 0.4221(4) 0.5254(5) 0.6100(4)
C2 C 0.4352(4) 0.5389(5) 0.6202(5)
C3 C 0.4507(5) 0.5493(5) 0.6134(7)
H3 H 0.4552 0.5448 0.6014
C4 C 0.4293(5) 0.5480(5) 0.6369(4)
H4 H 0.4175 0.5435 0.6417
C5 C 0.4375(6) 0.5625(6) 0.6480(8)
C6 C 0.4308(6) 0.5692(6) 0.6664(8)
C7 C 0.4256(6) 0.5744(6) 0.6821(8)
C8 C 0.4167(6) 0.5833(6) 0.6985(8)
C9 C 0.3998(4) 0.5742(5) 0.7037(5)
H9 H 0.3935 0.5644 0.6966
C10 C 0.3937(5) 0.5818(5) 0.7210(4)
H10 H 0.3825 0.5768 0.7267
C11 C 0.4035(6) 0.5965(6) 0.7300(8)
C12 C 0.3967(5) 0.6033(5) 0.7482(9)
C13 C 0.3886(6) 0.6114(6) 0.7614(8)
C14 C 0.3829(6) 0.6171(6) 0.7804(8)
C15 C 0.3660(5) 0.6126(5) 0.7897(5)
H15 H 0.3577 0.6042 0.7830
C16 C 0.3593(5) 0.6186(5) 0.8074(5)
H16 H 0.3488 0.6118 0.8126
C17 C 0.3664(6) 0.6336(6) 0.8183(8)
C18 C 0.3597(7) 0.6403(7) 0.8366(8)
C19 C 0.3701(7) 0.6549(6) 0.8451(6)
H19 H 0.3826 0.6586 0.8414
O1 O 0.4826(3) 0.8818(3) 0.9069(4)
O2 O 0.4826(3) 0.9051(4) 0.9305(3)
C1 C 0.4746(5) 0.8900(4) 0.9221(4)
C2 C 0.4611(5) 0.8798(5) 0.9352(4)
C3 C 0.4507(5) 0.8866(7) 0.9507(5)
H3 H 0.4552 0.8986 0.9552
C4 C 0.4520(5) 0.8631(4) 0.9293(5)
H4 H 0.4565 0.8583 0.9175
C5 C 0.4375(6) 0.8520(8) 0.9375(6)
C6 C 0.4308(6) 0.8336(8) 0.9308(6)
C7 C 0.4256(6) 0.8179(8) 0.9256(6)
C8 C 0.4167(6) 0.8015(8) 0.9167(6)
C9 C 0.4258(5) 0.7963(5) 0.8998(4)
H9 H 0.4356 0.8034 0.8935
C10 C 0.4182(5) 0.7790(4) 0.8937(5)
H10 H 0.4232 0.7733 0.8825
C11 C 0.4035(6) 0.7700(8) 0.9035(6)
C12 C 0.3967(5) 0.7518(9) 0.8967(5)
C13 C 0.3886(6) 0.7386(8) 0.8886(6)
C14 C 0.3829(6) 0.7196(8) 0.8829(6)
C15 C 0.3874(5) 0.7103(5) 0.8660(5)
H15 H 0.3958 0.7170 0.8577
C16 C 0.3814(5) 0.6926(5) 0.8593(5)
H16 H 0.3882 0.6874 0.8488
C17 C 0.3664(6) 0.6817(8) 0.8664(6)
C18 C 0.3597(7) 0.6634(8) 0.8597(7)
C19 C 0.3451(6) 0.6549(6) 0.8701(7)
H19 H 0.3414 0.6586 0.8826
O1 O 0.1182(3) 0.5931(4) 0.9826(3)
O2 O 0.0949(4) 0.5695(3) 0.9826(3)
C1 C 0.1100(4) 0.5779(4) 0.9746(5)
C2 C 0.1202(5) 0.5648(4) 0.9611(5)
C3 C 0.1134(7) 0.5493(5) 0.9507(5)
H3 H 0.1014 0.5448 0.9552
C4 C 0.1369(4) 0.5707(5) 0.9520(5)
H4 H 0.1417 0.5825 0.9565
C5 C 0.1480(8) 0.5625(6) 0.9375(6)
C6 C 0.1664(8) 0.5692(6) 0.9308(6)
C7 C 0.1821(8) 0.5744(6) 0.9256(6)
C8 C 0.1985(8) 0.5833(6) 0.9167(6)
C9 C 0.2037(5) 0.6002(4) 0.9258(5)
H9 H 0.1966 0.6065 0.9356
C10 C 0.2210(4) 0.6063(5) 0.9182(5)
H10 H 0.2267 0.6175 0.9232
C11 C 0.2300(8) 0.5965(6) 0.9035(6)
C12 C 0.2482(9) 0.6033(5) 0.8967(5)
C13 C 0.2614(8) 0.6114(6) 0.8886(6)
C14 C 0.2804(8) 0.6171(6) 0.8829(6)
C15 C 0.2897(5) 0.6340(5) 0.8874(5)
H15 H 0.2830 0.6423 0.8958
C16 C 0.3074(5) 0.6407(5) 0.8814(5)
H16 H 0.3126 0.6512 0.8882
C17 C 0.3183(8) 0.6336(6) 0.8664(6)
C18 C 0.3366(8) 0.6403(7) 0.8597(7)
C19 C 0.3451(6) 0.6299(7) 0.8451(6)
H19 H 0.3414 0.6174 0.8414
C1 C 0.4746(5) 0.5779(4) 0.6100(4)
C2 C 0.4611(5) 0.5648(4) 0.6202(5)
C4 C 0.4520(5) 0.5707(5) 0.6369(4)
H4 H 0.4565 0.5825 0.6417
C9 C 0.4258(5) 0.6002(4) 0.7037(5)
H9 H 0.4356 0.6065 0.6966
C10 C 0.4182(5) 0.6063(5) 0.7210(4)
H10 H 0.4232 0.6175 0.7267
C15 C 0.3874(5) 0.6340(5) 0.7897(5)
H15 H 0.3958 0.6423 0.7830
C16 C 0.3814(5) 0.6407(5) 0.8074(5)
H16 H 0.3882 0.6512 0.8126
O1 O 0.4069(4) 0.8818(3) 0.9826(3)
O2 O 0.4305(3) 0.9051(4) 0.9826(3)
C1 C 0.4221(4) 0.8900(4) 0.9746(5)
C2 C 0.4352(4) 0.8798(5) 0.9611(5)
C4 C 0.4293(5) 0.8631(4) 0.9520(5)
H4 H 0.4175 0.8583 0.9565
C9 C 0.3998(4) 0.7963(5) 0.9258(5)
H9 H 0.3935 0.8034 0.9356
C10 C 0.3937(5) 0.7790(4) 0.9182(5)
H10 H 0.3825 0.7733 0.9232
C15 C 0.3660(5) 0.7103(5) 0.8874(5)
H15 H 0.3577 0.7170 0.8958
C16 C 0.3593(5) 0.6926(5) 0.8814(5)
H16 H 0.3488 0.6874 0.8882
O1 O 0.1182(3) 0.5174(3) 0.9069(4)
O2 O 0.0949(4) 0.5174(3) 0.9305(3)
C1 C 0.1100(4) 0.5254(5) 0.9221(4)
C2 C 0.1202(5) 0.5389(5) 0.9352(4)
C4 C 0.1369(4) 0.5480(5) 0.9293(5)
H4 H 0.1417 0.5435 0.9175
C9 C 0.2037(5) 0.5742(5) 0.8998(4)
H9 H 0.1966 0.5644 0.8935
C10 C 0.2210(4) 0.5818(5) 0.8937(5)
H10 H 0.2267 0.5768 0.8825
C15 C 0.2897(5) 0.6126(5) 0.8660(5)
H15 H 0.2830 0.6042 0.8577
C16 C 0.3074(5) 0.6186(5) 0.8593(5)
H16 H 0.3126 0.6118 0.8488
Cu1 Cu 0.10340(12) 0.60340(12) 1.0000
Cu1 Cu 0.39660(12) 0.89660(12) 1.0000
Cu2 Cu 0.08212(12) 0.58212(12) 1.0000
Cu2 Cu 0.41788(12) 0.91788(12) 1.0000
C1 C 0.4221(4) 0.4746(5) 0.3900(4)
C2 C 0.4352(4) 0.4611(5) 0.3798(5)
C3 C 0.4507(5) 0.4507(5) 0.3866(7)
H3 H 0.4552 0.4552 0.3986
C4 C 0.4293(5) 0.4520(5) 0.3631(4)
H4 H 0.4175 0.4565 0.3583
C5 C 0.4375(6) 0.4375(6) 0.3520(8)
C6 C 0.4308(6) 0.4308(6) 0.3336(8)
C7 C 0.4256(6) 0.4256(6) 0.3179(8)
C8 C 0.4167(6) 0.4167(6) 0.3015(8)
C9 C 0.3998(4) 0.4258(5) 0.2963(5)
H9 H 0.3935 0.4356 0.3034
C10 C 0.3937(5) 0.4182(5) 0.2790(4)
H10 H 0.3825 0.4232 0.2733
C11 C 0.4035(6) 0.4035(6) 0.2700(8)
C12 C 0.3967(5) 0.3967(5) 0.2518(9)
C13 C 0.3886(6) 0.3886(6) 0.2386(8)
C14 C 0.3829(6) 0.3829(6) 0.2196(8)
C15 C 0.3660(5) 0.3874(5) 0.2103(5)
H15 H 0.3577 0.3958 0.2170
C16 C 0.3593(5) 0.3814(5) 0.1926(5)
H16 H 0.3488 0.3882 0.1874
C17 C 0.3664(6) 0.3664(6) 0.1817(8)
C18 C 0.3597(7) 0.3597(7) 0.1634(8)
C19 C 0.3701(7) 0.3451(6) 0.1549(6)
H19 H 0.3826 0.3414 0.1586
O1 O 0.4826(3) 0.1182(3) 0.0931(4)
O2 O 0.4826(3) 0.0949(4) 0.0695(3)
C1 C 0.4746(5) 0.1100(4) 0.0779(4)
C2 C 0.4611(5) 0.1202(5) 0.0648(4)
C3 C 0.4507(5) 0.1134(7) 0.0493(5)
H3 H 0.4552 0.1014 0.0448
C4 C 0.4520(5) 0.1369(4) 0.0707(5)
H4 H 0.4565 0.1417 0.0825
C5 C 0.4375(6) 0.1480(8) 0.0625(6)
C6 C 0.4308(6) 0.1664(8) 0.0692(6)
C7 C 0.4256(6) 0.1821(8) 0.0744(6)
C8 C 0.4167(6) 0.1985(8) 0.0833(6)
C9 C 0.4258(5) 0.2037(5) 0.1002(4)
H9 H 0.4356 0.1966 0.1065
C10 C 0.4182(5) 0.2210(4) 0.1063(5)
H10 H 0.4232 0.2267 0.1175
C11 C 0.4035(6) 0.2300(8) 0.0965(6)
C12 C 0.3967(5) 0.2482(9) 0.1033(5)
C13 C 0.3886(6) 0.2614(8) 0.1114(6)
C14 C 0.3829(6) 0.2804(8) 0.1171(6)
C15 C 0.3874(5) 0.2897(5) 0.1340(5)
H15 H 0.3958 0.2830 0.1423
C16 C 0.3814(5) 0.3074(5) 0.1407(5)
H16 H 0.3882 0.3126 0.1512
C17 C 0.3664(6) 0.3183(8) 0.1336(6)
C18 C 0.3597(7) 0.3366(8) 0.1403(7)
C19 C 0.3451(6) 0.3451(6) 0.1299(7)
H19 H 0.3414 0.3414 0.1174
O1 O 0.1182(3) 0.4069(4) 0.0174(3)
O2 O 0.0949(4) 0.4305(3) 0.0174(3)
C1 C 0.1100(4) 0.4221(4) 0.0254(5)
C2 C 0.1202(5) 0.4352(4) 0.0389(5)
C3 C 0.1134(7) 0.4507(5) 0.0493(5)
H3 H 0.1014 0.4552 0.0448
C4 C 0.1369(4) 0.4293(5) 0.0480(5)
H4 H 0.1417 0.4175 0.0435
C5 C 0.1480(8) 0.4375(6) 0.0625(6)
C6 C 0.1664(8) 0.4308(6) 0.0692(6)
C7 C 0.1821(8) 0.4256(6) 0.0744(6)
C8 C 0.1985(8) 0.4167(6) 0.0833(6)
C9 C 0.2037(5) 0.3998(4) 0.0742(5)
H9 H 0.1966 0.3935 0.0644
C10 C 0.2210(4) 0.3937(5) 0.0818(5)
H10 H 0.2267 0.3825 0.0768
C11 C 0.2300(8) 0.4035(6) 0.0965(6)
C12 C 0.2482(9) 0.3967(5) 0.1033(5)
C13 C 0.2614(8) 0.3886(6) 0.1114(6)
C14 C 0.2804(8) 0.3829(6) 0.1171(6)
C15 C 0.2897(5) 0.3660(5) 0.1126(5)
H15 H 0.2830 0.3577 0.1042
C16 C 0.3074(5) 0.3593(5) 0.1186(5)
H16 H 0.3126 0.3488 0.1118
C17 C 0.3183(8) 0.3664(6) 0.1336(6)
C18 C 0.3366(8) 0.3597(7) 0.1403(7)
C19 C 0.3451(6) 0.3701(7) 0.1549(6)
H19 H 0.3414 0.3826 0.1586
C1 C 0.4746(5) 0.4221(4) 0.3900(4)
C2 C 0.4611(5) 0.4352(4) 0.3798(5)
C4 C 0.4520(5) 0.4293(5) 0.3631(4)
H4 H 0.4565 0.4175 0.3583
C9 C 0.4258(5) 0.3998(4) 0.2963(5)
H9 H 0.4356 0.3935 0.3034
C10 C 0.4182(5) 0.3937(5) 0.2790(4)
H10 H 0.4232 0.3825 0.2733
C15 C 0.3874(5) 0.3660(5) 0.2103(5)
H15 H 0.3958 0.3577 0.2170
C16 C 0.3814(5) 0.3593(5) 0.1926(5)
H16 H 0.3882 0.3488 0.1874
O1 O 0.4069(4) 0.1182(3) 0.0174(3)
O2 O 0.4305(3) 0.0949(4) 0.0174(3)
C1 C 0.4221(4) 0.1100(4) 0.0254(5)
C2 C 0.4352(4) 0.1202(5) 0.0389(5)
C4 C 0.4293(5) 0.1369(4) 0.0480(5)
H4 H 0.4175 0.1417 0.0435
C9 C 0.3998(4) 0.2037(5) 0.0742(5)
H9 H 0.3935 0.1966 0.0644
C10 C 0.3937(5) 0.2210(4) 0.0818(5)
H10 H 0.3825 0.2267 0.0768
C15 C 0.3660(5) 0.2897(5) 0.1126(5)
H15 H 0.3577 0.2830 0.1042
C16 C 0.3593(5) 0.3074(5) 0.1186(5)
H16 H 0.3488 0.3126 0.1118
O1 O 0.1182(3) 0.4826(3) 0.0931(4)
O2 O 0.0949(4) 0.4826(3) 0.0695(3)
C1 C 0.1100(4) 0.4746(5) 0.0779(4)
C2 C 0.1202(5) 0.4611(5) 0.0648(4)
C4 C 0.1369(4) 0.4520(5) 0.0707(5)
H4 H 0.1417 0.4565 0.0825
C9 C 0.2037(5) 0.4258(5) 0.1002(4)
H9 H 0.1966 0.4356 0.1065
C10 C 0.2210(4) 0.4182(5) 0.1063(5)
H10 H 0.2267 0.4232 0.1175
C15 C 0.2897(5) 0.3874(5) 0.1340(5)
H15 H 0.2830 0.3958 0.1423
C16 C 0.3074(5) 0.3814(5) 0.1407(5)
H16 H 0.3126 0.3882 0.1512
Cu1 Cu 0.10340(12) 0.39660(12) 0.0000
Cu1 Cu 0.39660(12) 0.10340(12) 0.0000
Cu2 Cu 0.08212(12) 0.41788(12) 0.0000
Cu2 Cu 0.41788(12) 0.08212(12) 0.0000
C1 C 0.5779(4) 0.3900(4) 0.4746(5)
C2 C 0.5648(4) 0.3798(5) 0.4611(5)
C3 C 0.5493(5) 0.3866(7) 0.4507(5)
H3 H 0.5448 0.3986 0.4552
C4 C 0.5707(5) 0.3631(4) 0.4520(5)
H4 H 0.5825 0.3583 0.4565
C5 C 0.5625(6) 0.3520(8) 0.4375(6)
C6 C 0.5692(6) 0.3336(8) 0.4308(6)
C7 C 0.5744(6) 0.3179(8) 0.4256(6)
C8 C 0.5833(6) 0.3015(8) 0.4167(6)
C9 C 0.6002(4) 0.2963(5) 0.4258(5)
H9 H 0.6065 0.3034 0.4356
C10 C 0.6063(5) 0.2790(4) 0.4182(5)
H10 H 0.6175 0.2733 0.4232
C11 C 0.5965(6) 0.2700(8) 0.4035(6)
C12 C 0.6033(5) 0.2518(9) 0.3967(5)
C13 C 0.6114(6) 0.2386(8) 0.3886(6)
C14 C 0.6171(6) 0.2196(8) 0.3829(6)
C15 C 0.6340(5) 0.2103(5) 0.3874(5)
H15 H 0.6423 0.2170 0.3958
C16 C 0.6407(5) 0.1926(5) 0.3814(5)
H16 H 0.6512 0.1874 0.3882
C17 C 0.6336(6) 0.1817(8) 0.3664(6)
C18 C 0.6403(7) 0.1634(8) 0.3597(7)
C19 C 0.6299(7) 0.1549(6) 0.3451(6)
H19 H 0.6174 0.1586 0.3414
O1 O 0.5174(3) 0.0931(4) 0.1182(3)
O2 O 0.5174(3) 0.0695(3) 0.0949(4)
C1 C 0.5254(5) 0.0779(4) 0.1100(4)
C2 C 0.5389(5) 0.0648(4) 0.1202(5)
C3 C 0.5493(5) 0.0493(5) 0.1134(7)
H3 H 0.5448 0.0448 0.1014
C4 C 0.5480(5) 0.0707(5) 0.1369(4)
H4 H 0.5435 0.0825 0.1417
C5 C 0.5625(6) 0.0625(6) 0.1480(8)
C6 C 0.5692(6) 0.0692(6) 0.1664(8)
C7 C 0.5744(6) 0.0744(6) 0.1821(8)
C8 C 0.5833(6) 0.0833(6) 0.1985(8)
C9 C 0.5742(5) 0.1002(4) 0.2037(5)
H9 H 0.5644 0.1065 0.1966
C10 C 0.5818(5) 0.1063(5) 0.2210(4)
H10 H 0.5768 0.1175 0.2267
C11 C 0.5965(6) 0.0965(6) 0.2300(8)
C12 C 0.6033(5) 0.1033(5) 0.2482(9)
C13 C 0.6114(6) 0.1114(6) 0.2614(8)
C14 C 0.6171(6) 0.1171(6) 0.2804(8)
C15 C 0.6126(5) 0.1340(5) 0.2897(5)
H15 H 0.6042 0.1423 0.2830
C16 C 0.6186(5) 0.1407(5) 0.3074(5)
H16 H 0.6118 0.1512 0.3126
C17 C 0.6336(6) 0.1336(6) 0.3183(8)
C18 C 0.6403(7) 0.1403(7) 0.3366(8)
C19 C 0.6549(6) 0.1299(7) 0.3451(6)
H19 H 0.6586 0.1174 0.3414
O1 O 0.8818(3) 0.0174(3) 0.4069(4)
O2 O 0.9051(4) 0.0174(3) 0.4305(3)
C1 C 0.8900(4) 0.0254(5) 0.4221(4)
C2 C 0.8798(5) 0.0389(5) 0.4352(4)
C3 C 0.8866(7) 0.0493(5) 0.4507(5)
H3 H 0.8986 0.0448 0.4552
C4 C 0.8631(4) 0.0480(5) 0.4293(5)
H4 H 0.8583 0.0435 0.4175
C5 C 0.8520(8) 0.0625(6) 0.4375(6)
C6 C 0.8336(8) 0.0692(6) 0.4308(6)
C7 C 0.8179(8) 0.0744(6) 0.4256(6)
C8 C 0.8015(8) 0.0833(6) 0.4167(6)
C9 C 0.7963(5) 0.0742(5) 0.3998(4)
H9 H 0.8034 0.0644 0.3935
C10 C 0.7790(4) 0.0818(5) 0.3937(5)
H10 H 0.7733 0.0768 0.3825
C11 C 0.7700(8) 0.0965(6) 0.4035(6)
C12 C 0.7518(9) 0.1033(5) 0.3967(5)
C13 C 0.7386(8) 0.1114(6) 0.3886(6)
C14 C 0.7196(8) 0.1171(6) 0.3829(6)
C15 C 0.7103(5) 0.1126(5) 0.3660(5)
H15 H 0.7170 0.1042 0.3577
C16 C 0.6926(5) 0.1186(5) 0.3593(5)
H16 H 0.6874 0.1118 0.3488
C17 C 0.6817(8) 0.1336(6) 0.3664(6)
C18 C 0.6634(8) 0.1403(7) 0.3597(7)
C19 C 0.6549(6) 0.1549(6) 0.3701(7)
H19 H 0.6586 0.1586 0.3826
C1 C 0.5254(5) 0.3900(4) 0.4221(4)
C2 C 0.5389(5) 0.3798(5) 0.4352(4)
C4 C 0.5480(5) 0.3631(4) 0.4293(5)
H4 H 0.5435 0.3583 0.4175
C9 C 0.5742(5) 0.2963(5) 0.3998(4)
H9 H 0.5644 0.3034 0.3935
C10 C 0.5818(5) 0.2790(4) 0.3937(5)
H10 H 0.5768 0.2733 0.3825
C15 C 0.6126(5) 0.2103(5) 0.3660(5)
H15 H 0.6042 0.2170 0.3577
C16 C 0.6186(5) 0.1926(5) 0.3593(5)
H16 H 0.6118 0.1874 0.3488
O1 O 0.5931(4) 0.0174(3) 0.1182(3)
O2 O 0.5695(3) 0.0174(3) 0.0949(4)
C1 C 0.5779(4) 0.0254(5) 0.1100(4)
C2 C 0.5648(4) 0.0389(5) 0.1202(5)
C4 C 0.5707(5) 0.0480(5) 0.1369(4)
H4 H 0.5825 0.0435 0.1417
C9 C 0.6002(4) 0.0742(5) 0.2037(5)
H9 H 0.6065 0.0644 0.1966
C10 C 0.6063(5) 0.0818(5) 0.2210(4)
H10 H 0.6175 0.0768 0.2267
C15 C 0.6340(5) 0.1126(5) 0.2897(5)
H15 H 0.6423 0.1042 0.2830
C16 C 0.6407(5) 0.1186(5) 0.3074(5)
H16 H 0.6512 0.1118 0.3126
O1 O 0.8818(3) 0.0931(4) 0.4826(3)
O2 O 0.9051(4) 0.0695(3) 0.4826(3)
C1 C 0.8900(4) 0.0779(4) 0.4746(5)
C2 C 0.8798(5) 0.0648(4) 0.4611(5)
C4 C 0.8631(4) 0.0707(5) 0.4520(5)
H4 H 0.8583 0.0825 0.4565
C9 C 0.7963(5) 0.1002(4) 0.4258(5)
H9 H 0.8034 0.1065 0.4356
C10 C 0.7790(4) 0.1063(5) 0.4182(5)
H10 H 0.7733 0.1175 0.4232
C15 C 0.7103(5) 0.1340(5) 0.3874(5)
H15 H 0.7170 0.1423 0.3958
C16 C 0.6926(5) 0.1407(5) 0.3814(5)
H16 H 0.6874 0.1512 0.3882
C1 C 0.6100(4) 0.4746(5) 0.4221(4)
C2 C 0.6202(5) 0.4611(5) 0.4352(4)
C3 C 0.6134(7) 0.4507(5) 0.4507(5)
H3 H 0.6014 0.4552 0.4552
C4 C 0.6369(4) 0.4520(5) 0.4293(5)
H4 H 0.6417 0.4565 0.4175
C5 C 0.6480(8) 0.4375(6) 0.4375(6)
C6 C 0.6664(8) 0.4308(6) 0.4308(6)
C7 C 0.6821(8) 0.4256(6) 0.4256(6)
C8 C 0.6985(8) 0.4167(6) 0.4167(6)
C9 C 0.7037(5) 0.4258(5) 0.3998(4)
H9 H 0.6966 0.4356 0.3935
C10 C 0.7210(4) 0.4182(5) 0.3937(5)
H10 H 0.7267 0.4232 0.3825
C11 C 0.7300(8) 0.4035(6) 0.4035(6)
C12 C 0.7482(9) 0.3967(5) 0.3967(5)
C13 C 0.7614(8) 0.3886(6) 0.3886(6)
C14 C 0.7804(8) 0.3829(6) 0.3829(6)
C15 C 0.7897(5) 0.3874(5) 0.3660(5)
H15 H 0.7830 0.3958 0.3577
C16 C 0.8074(5) 0.3814(5) 0.3593(5)
H16 H 0.8126 0.3882 0.3488
C17 C 0.8183(8) 0.3664(6) 0.3664(6)
C18 C 0.8366(8) 0.3597(7) 0.3597(7)
C19 C 0.8451(6) 0.3451(6) 0.3701(7)
H19 H 0.8414 0.3414 0.3826
O1 O 0.9069(4) 0.1182(3) 0.4826(3)
O2 O 0.9305(3) 0.0949(4) 0.4826(3)
C1 C 0.9221(4) 0.1100(4) 0.4746(5)
C2 C 0.9352(4) 0.1202(5) 0.4611(5)
C3 C 0.9507(5) 0.1134(7) 0.4507(5)
H3 H 0.9552 0.1014 0.4552
C4 C 0.9293(5) 0.1369(4) 0.4520(5)
H4 H 0.9175 0.1417 0.4565
C5 C 0.9375(6) 0.1480(8) 0.4375(6)
C6 C 0.9308(6) 0.1664(8) 0.4308(6)
C7 C 0.9256(6) 0.1821(8) 0.4256(6)
C8 C 0.9167(6) 0.1985(8) 0.4167(6)
C9 C 0.8998(4) 0.2037(5) 0.4258(5)
H9 H 0.8935 0.1966 0.4356
C10 C 0.8937(5) 0.2210(4) 0.4182(5)
H10 H 0.8825 0.2267 0.4232
C11 C 0.9035(6) 0.2300(8) 0.4035(6)
C12 C 0.8967(5) 0.2482(9) 0.3967(5)
C13 C 0.8886(6) 0.2614(8) 0.3886(6)
C14 C 0.8829(6) 0.2804(8) 0.3829(6)
C15 C 0.8660(5) 0.2897(5) 0.3874(5)
H15 H 0.8577 0.2830 0.3958
C16 C 0.8593(5) 0.3074(5) 0.3814(5)
H16 H 0.8488 0.3126 0.3882
C17 C 0.8664(6) 0.3183(8) 0.3664(6)
C18 C 0.8597(7) 0.3366(8) 0.3597(7)
C19 C 0.8701(7) 0.3451(6) 0.3451(6)
H19 H 0.8826 0.3414 0.3414
O1 O 0.9826(3) 0.4069(4) 0.1182(3)
O2 O 0.9826(3) 0.4305(3) 0.0949(4)
C1 C 0.9746(5) 0.4221(4) 0.1100(4)
C2 C 0.9611(5) 0.4352(4) 0.1202(5)
C3 C 0.9507(5) 0.4507(5) 0.1134(7)
H3 H 0.9552 0.4552 0.1014
C4 C 0.9520(5) 0.4293(5) 0.1369(4)
H4 H 0.9565 0.4175 0.1417
C5 C 0.9375(6) 0.4375(6) 0.1480(8)
C6 C 0.9308(6) 0.4308(6) 0.1664(8)
C7 C 0.9256(6) 0.4256(6) 0.1821(8)
C8 C 0.9167(6) 0.4167(6) 0.1985(8)
C9 C 0.9258(5) 0.3998(4) 0.2037(5)
H9 H 0.9356 0.3935 0.1966
C10 C 0.9182(5) 0.3937(5) 0.2210(4)
H10 H 0.9232 0.3825 0.2267
C11 C 0.9035(6) 0.4035(6) 0.2300(8)
C12 C 0.8967(5) 0.3967(5) 0.2482(9)
C13 C 0.8886(6) 0.3886(6) 0.2614(8)
C14 C 0.8829(6) 0.3829(6) 0.2804(8)
C15 C 0.8874(5) 0.3660(5) 0.2897(5)
H15 H 0.8958 0.3577 0.2830
C16 C 0.8814(5) 0.3593(5) 0.3074(5)
H16 H 0.8882 0.3488 0.3126
C17 C 0.8664(6) 0.3664(6) 0.3183(8)
C18 C 0.8597(7) 0.3597(7) 0.3366(8)
C19 C 0.8451(6) 0.3701(7) 0.3451(6)
H19 H 0.8414 0.3826 0.3414
C1 C 0.6100(4) 0.4221(4) 0.4746(5)
C2 C 0.6202(5) 0.4352(4) 0.4611(5)
C4 C 0.6369(4) 0.4293(5) 0.4520(5)
H4 H 0.6417 0.4175 0.4565
C9 C 0.7037(5) 0.3998(4) 0.4258(5)
H9 H 0.6966 0.3935 0.4356
C10 C 0.7210(4) 0.3937(5) 0.4182(5)
H10 H 0.7267 0.3825 0.4232
C15 C 0.7897(5) 0.3660(5) 0.3874(5)
H15 H 0.7830 0.3577 0.3958
C16 C 0.8074(5) 0.3593(5) 0.3814(5)
H16 H 0.8126 0.3488 0.3882
O1 O 0.9826(3) 0.1182(3) 0.4069(4)
O2 O 0.9826(3) 0.0949(4) 0.4305(3)
C1 C 0.9746(5) 0.1100(4) 0.4221(4)
C2 C 0.9611(5) 0.1202(5) 0.4352(4)
C4 C 0.9520(5) 0.1369(4) 0.4293(5)
H4 H 0.9565 0.1417 0.4175
C9 C 0.9258(5) 0.2037(5) 0.3998(4)
H9 H 0.9356 0.1966 0.3935
C10 C 0.9182(5) 0.2210(4) 0.3937(5)
H10 H 0.9232 0.2267 0.3825
C15 C 0.8874(5) 0.2897(5) 0.3660(5)
H15 H 0.8958 0.2830 0.3577
C16 C 0.8814(5) 0.3074(5) 0.3593(5)
H16 H 0.8882 0.3126 0.3488
O1 O 0.9069(4) 0.4826(3) 0.1182(3)
O2 O 0.9305(3) 0.4826(3) 0.0949(4)
C1 C 0.9221(4) 0.4746(5) 0.1100(4)
C2 C 0.9352(4) 0.4611(5) 0.1202(5)
C4 C 0.9293(5) 0.4520(5) 0.1369(4)
H4 H 0.9175 0.4565 0.1417
C9 C 0.8998(4) 0.4258(5) 0.2037(5)
H9 H 0.8935 0.4356 0.1966
C10 C 0.8937(5) 0.4182(5) 0.2210(4)
H10 H 0.8825 0.4232 0.2267
C15 C 0.8660(5) 0.3874(5) 0.2897(5)
H15 H 0.8577 0.3958 0.2830
C16 C 0.8593(5) 0.3814(5) 0.3074(5)
H16 H 0.8488 0.3882 0.3126
Cu1 Cu 1.0000 0.39660(12) 0.10340(12)
Cu1 Cu 0.60340(12) 0.0000 0.10340(12)
Cu1 Cu 0.89660(12) 0.0000 0.39660(12)
Cu1 Cu 1.0000 0.10340(12) 0.39660(12)
Cu2 Cu 1.0000 0.41788(12) 0.08212(12)
Cu2 Cu 0.58212(12) 0.0000 0.08212(12)
Cu2 Cu 0.91788(12) 0.0000 0.41788(12)
Cu2 Cu 1.0000 0.08212(12) 0.41788(12)
C1 C 0.4221(4) 0.6100(4) 0.4746(5)
C2 C 0.4352(4) 0.6202(5) 0.4611(5)
C3 C 0.4507(5) 0.6134(7) 0.4507(5)
H3 H 0.4552 0.6014 0.4552
C4 C 0.4293(5) 0.6369(4) 0.4520(5)
H4 H 0.4175 0.6417 0.4565
C5 C 0.4375(6) 0.6480(8) 0.4375(6)
C6 C 0.4308(6) 0.6664(8) 0.4308(6)
C7 C 0.4256(6) 0.6821(8) 0.4256(6)
C8 C 0.4167(6) 0.6985(8) 0.4167(6)
C9 C 0.3998(4) 0.7037(5) 0.4258(5)
H9 H 0.3935 0.6966 0.4356
C10 C 0.3937(5) 0.7210(4) 0.4182(5)
H10 H 0.3825 0.7267 0.4232
C11 C 0.4035(6) 0.7300(8) 0.4035(6)
C12 C 0.3967(5) 0.7482(9) 0.3967(5)
C13 C 0.3886(6) 0.7614(8) 0.3886(6)
C14 C 0.3829(6) 0.7804(8) 0.3829(6)
C15 C 0.3660(5) 0.7897(5) 0.3874(5)
H15 H 0.3577 0.7830 0.3958
C16 C 0.3593(5) 0.8074(5) 0.3814(5)
H16 H 0.3488 0.8126 0.3882
C17 C 0.3664(6) 0.8183(8) 0.3664(6)
C18 C 0.3597(7) 0.8366(8) 0.3597(7)
C19 C 0.3701(7) 0.8451(6) 0.3451(6)
H19 H 0.3826 0.8414 0.3414
O1 O 0.4826(3) 0.9069(4) 0.1182(3)
O2 O 0.4826(3) 0.9305(3) 0.0949(4)
C1 C 0.4746(5) 0.9221(4) 0.1100(4)
C2 C 0.4611(5) 0.9352(4) 0.1202(5)
C3 C 0.4507(5) 0.9507(5) 0.1134(7)
H3 H 0.4552 0.9552 0.1014
C4 C 0.4520(5) 0.9293(5) 0.1369(4)
H4 H 0.4565 0.9175 0.1417
C5 C 0.4375(6) 0.9375(6) 0.1480(8)
C6 C 0.4308(6) 0.9308(6) 0.1664(8)
C7 C 0.4256(6) 0.9256(6) 0.1821(8)
C8 C 0.4167(6) 0.9167(6) 0.1985(8)
C9 C 0.4258(5) 0.8998(4) 0.2037(5)
H9 H 0.4356 0.8935 0.1966
C10 C 0.4182(5) 0.8937(5) 0.2210(4)
H10 H 0.4232 0.8825 0.2267
C11 C 0.4035(6) 0.9035(6) 0.2300(8)
C12 C 0.3967(5) 0.8967(5) 0.2482(9)
C13 C 0.3886(6) 0.8886(6) 0.2614(8)
C14 C 0.3829(6) 0.8829(6) 0.2804(8)
C15 C 0.3874(5) 0.8660(5) 0.2897(5)
H15 H 0.3958 0.8577 0.2830
C16 C 0.3814(5) 0.8593(5) 0.3074(5)
H16 H 0.3882 0.8488 0.3126
C17 C 0.3664(6) 0.8664(6) 0.3183(8)
C18 C 0.3597(7) 0.8597(7) 0.3366(8)
C19 C 0.3451(6) 0.8701(7) 0.3451(6)
H19 H 0.3414 0.8826 0.3414
O1 O 0.1182(3) 0.9826(3) 0.4069(4)
O2 O 0.0949(4) 0.9826(3) 0.4305(3)
C1 C 0.1100(4) 0.9746(5) 0.4221(4)
C2 C 0.1202(5) 0.9611(5) 0.4352(4)
C3 C 0.1134(7) 0.9507(5) 0.4507(5)
H3 H 0.1014 0.9552 0.4552
C4 C 0.1369(4) 0.9520(5) 0.4293(5)
H4 H 0.1417 0.9565 0.4175
C5 C 0.1480(8) 0.9375(6) 0.4375(6)
C6 C 0.1664(8) 0.9308(6) 0.4308(6)
C7 C 0.1821(8) 0.9256(6) 0.4256(6)
C8 C 0.1985(8) 0.9167(6) 0.4167(6)
C9 C 0.2037(5) 0.9258(5) 0.3998(4)
H9 H 0.1966 0.9356 0.3935
C10 C 0.2210(4) 0.9182(5) 0.3937(5)
H10 H 0.2267 0.9232 0.3825
C11 C 0.2300(8) 0.9035(6) 0.4035(6)
C12 C 0.2482(9) 0.8967(5) 0.3967(5)
C13 C 0.2614(8) 0.8886(6) 0.3886(6)
C14 C 0.2804(8) 0.8829(6) 0.3829(6)
C15 C 0.2897(5) 0.8874(5) 0.3660(5)
H15 H 0.2830 0.8958 0.3577
C16 C 0.3074(5) 0.8814(5) 0.3593(5)
H16 H 0.3126 0.8882 0.3488
C17 C 0.3183(8) 0.8664(6) 0.3664(6)
C18 C 0.3366(8) 0.8597(7) 0.3597(7)
C19 C 0.3451(6) 0.8451(6) 0.3701(7)
H19 H 0.3414 0.8414 0.3826
C1 C 0.4746(5) 0.6100(4) 0.4221(4)
C2 C 0.4611(5) 0.6202(5) 0.4352(4)
C4 C 0.4520(5) 0.6369(4) 0.4293(5)
H4 H 0.4565 0.6417 0.4175
C9 C 0.4258(5) 0.7037(5) 0.3998(4)
H9 H 0.4356 0.6966 0.3935
C10 C 0.4182(5) 0.7210(4) 0.3937(5)
H10 H 0.4232 0.7267 0.3825
C15 C 0.3874(5) 0.7897(5) 0.3660(5)
H15 H 0.3958 0.7830 0.3577
C16 C 0.3814(5) 0.8074(5) 0.3593(5)
H16 H 0.3882 0.8126 0.3488
O1 O 0.4069(4) 0.9826(3) 0.1182(3)
O2 O 0.4305(3) 0.9826(3) 0.0949(4)
C1 C 0.4221(4) 0.9746(5) 0.1100(4)
C2 C 0.4352(4) 0.9611(5) 0.1202(5)
C4 C 0.4293(5) 0.9520(5) 0.1369(4)
H4 H 0.4175 0.9565 0.1417
C9 C 0.3998(4) 0.9258(5) 0.2037(5)
H9 H 0.3935 0.9356 0.1966
C10 C 0.3937(5) 0.9182(5) 0.2210(4)
H10 H 0.3825 0.9232 0.2267
C15 C 0.3660(5) 0.8874(5) 0.2897(5)
H15 H 0.3577 0.8958 0.2830
C16 C 0.3593(5) 0.8814(5) 0.3074(5)
H16 H 0.3488 0.8882 0.3126
O1 O 0.1182(3) 0.9069(4) 0.4826(3)
O2 O 0.0949(4) 0.9305(3) 0.4826(3)
C1 C 0.1100(4) 0.9221(4) 0.4746(5)
C2 C 0.1202(5) 0.9352(4) 0.4611(5)
C4 C 0.1369(4) 0.9293(5) 0.4520(5)
H4 H 0.1417 0.9175 0.4565
C9 C 0.2037(5) 0.8998(4) 0.4258(5)
H9 H 0.1966 0.8935 0.4356
C10 C 0.2210(4) 0.8937(5) 0.4182(5)
H10 H 0.2267 0.8825 0.4232
C15 C 0.2897(5) 0.8660(5) 0.3874(5)
H15 H 0.2830 0.8577 0.3958
C16 C 0.3074(5) 0.8593(5) 0.3814(5)
H16 H 0.3126 0.8488 0.3882
C1 C 0.3900(4) 0.5254(5) 0.4221(4)
C2 C 0.3798(5) 0.5389(5) 0.4352(4)
C3 C 0.3866(7) 0.5493(5) 0.4507(5)
H3 H 0.3986 0.5448 0.4552
C4 C 0.3631(4) 0.5480(5) 0.4293(5)
H4 H 0.3583 0.5435 0.4175
C5 C 0.3520(8) 0.5625(6) 0.4375(6)
C6 C 0.3336(8) 0.5692(6) 0.4308(6)
C7 C 0.3179(8) 0.5744(6) 0.4256(6)
C8 C 0.3015(8) 0.5833(6) 0.4167(6)
C9 C 0.2963(5) 0.5742(5) 0.3998(4)
H9 H 0.3034 0.5644 0.3935
C10 C 0.2790(4) 0.5818(5) 0.3937(5)
H10 H 0.2733 0.5768 0.3825
C11 C 0.2700(8) 0.5965(6) 0.4035(6)
C12 C 0.2518(9) 0.6033(5) 0.3967(5)
C13 C 0.2386(8) 0.6114(6) 0.3886(6)
C14 C 0.2196(8) 0.6171(6) 0.3829(6)
C15 C 0.2103(5) 0.6126(5) 0.3660(5)
H15 H 0.2170 0.6042 0.3577
C16 C 0.1926(5) 0.6186(5) 0.3593(5)
H16 H 0.1874 0.6118 0.3488
C17 C 0.1817(8) 0.6336(6) 0.3664(6)
C18 C 0.1634(8) 0.6403(7) 0.3597(7)
C19 C 0.1549(6) 0.6549(6) 0.3701(7)
H19 H 0.1586 0.6586 0.3826
O1 O 0.0931(4) 0.8818(3) 0.4826(3)
O2 O 0.0695(3) 0.9051(4) 0.4826(3)
C1 C 0.0779(4) 0.8900(4) 0.4746(5)
C2 C 0.0648(4) 0.8798(5) 0.4611(5)
C3 C 0.0493(5) 0.8866(7) 0.4507(5)
H3 H 0.0448 0.8986 0.4552
C4 C 0.0707(5) 0.8631(4) 0.4520(5)
H4 H 0.0825 0.8583 0.4565
C5 C 0.0625(6) 0.8520(8) 0.4375(6)
C6 C 0.0692(6) 0.8336(8) 0.4308(6)
C7 C 0.0744(6) 0.8179(8) 0.4256(6)
C8 C 0.0833(6) 0.8015(8) 0.4167(6)
C9 C 0.1002(4) 0.7963(5) 0.4258(5)
H9 H 0.1065 0.8034 0.4356
C10 C 0.1063(5) 0.7790(4) 0.4182(5)
H10 H 0.1175 0.7733 0.4232
C11 C 0.0965(6) 0.7700(8) 0.4035(6)
C12 C 0.1033(5) 0.7518(9) 0.3967(5)
C13 C 0.1114(6) 0.7386(8) 0.3886(6)
C14 C 0.1171(6) 0.7196(8) 0.3829(6)
C15 C 0.1340(5) 0.7103(5) 0.3874(5)
H15 H 0.1423 0.7170 0.3958
C16 C 0.1407(5) 0.6926(5) 0.3814(5)
H16 H 0.1512 0.6874 0.3882
C17 C 0.1336(6) 0.6817(8) 0.3664(6)
C18 C 0.1403(7) 0.6634(8) 0.3597(7)
C19 C 0.1299(7) 0.6549(6) 0.3451(6)
H19 H 0.1174 0.6586 0.3414
O1 O 0.0174(3) 0.5931(4) 0.1182(3)
O2 O 0.0174(3) 0.5695(3) 0.0949(4)
C1 C 0.0254(5) 0.5779(4) 0.1100(4)
C2 C 0.0389(5) 0.5648(4) 0.1202(5)
C3 C 0.0493(5) 0.5493(5) 0.1134(7)
H3 H 0.0448 0.5448 0.1014
C4 C 0.0480(5) 0.5707(5) 0.1369(4)
H4 H 0.0435 0.5825 0.1417
C5 C 0.0625(6) 0.5625(6) 0.1480(8)
C6 C 0.0692(6) 0.5692(6) 0.1664(8)
C7 C 0.0744(6) 0.5744(6) 0.1821(8)
C8 C 0.0833(6) 0.5833(6) 0.1985(8)
C9 C 0.0742(5) 0.6002(4) 0.2037(5)
H9 H 0.0644 0.6065 0.1966
C10 C 0.0818(5) 0.6063(5) 0.2210(4)
H10 H 0.0768 0.6175 0.2267
C11 C 0.0965(6) 0.5965(6) 0.2300(8)
C12 C 0.1033(5) 0.6033(5) 0.2482(9)
C13 C 0.1114(6) 0.6114(6) 0.2614(8)
C14 C 0.1171(6) 0.6171(6) 0.2804(8)
C15 C 0.1126(5) 0.6340(5) 0.2897(5)
H15 H 0.1042 0.6423 0.2830
C16 C 0.1186(5) 0.6407(5) 0.3074(5)
H16 H 0.1118 0.6512 0.3126
C17 C 0.1336(6) 0.6336(6) 0.3183(8)
C18 C 0.1403(7) 0.6403(7) 0.3366(8)
C19 C 0.1549(6) 0.6299(7) 0.3451(6)
H19 H 0.1586 0.6174 0.3414
C1 C 0.3900(4) 0.5779(4) 0.4746(5)
C2 C 0.3798(5) 0.5648(4) 0.4611(5)
C4 C 0.3631(4) 0.5707(5) 0.4520(5)
H4 H 0.3583 0.5825 0.4565
C9 C 0.2963(5) 0.6002(4) 0.4258(5)
H9 H 0.3034 0.6065 0.4356
C10 C 0.2790(4) 0.6063(5) 0.4182(5)
H10 H 0.2733 0.6175 0.4232
C15 C 0.2103(5) 0.6340(5) 0.3874(5)
H15 H 0.2170 0.6423 0.3958
C16 C 0.1926(5) 0.6407(5) 0.3814(5)
H16 H 0.1874 0.6512 0.3882
O1 O 0.0174(3) 0.8818(3) 0.4069(4)
O2 O 0.0174(3) 0.9051(4) 0.4305(3)
C1 C 0.0254(5) 0.8900(4) 0.4221(4)
C2 C 0.0389(5) 0.8798(5) 0.4352(4)
C4 C 0.0480(5) 0.8631(4) 0.4293(5)
H4 H 0.0435 0.8583 0.4175
C9 C 0.0742(5) 0.7963(5) 0.3998(4)
H9 H 0.0644 0.8034 0.3935
C10 C 0.0818(5) 0.7790(4) 0.3937(5)
H10 H 0.0768 0.7733 0.3825
C15 C 0.1126(5) 0.7103(5) 0.3660(5)
H15 H 0.1042 0.7170 0.3577
C16 C 0.1186(5) 0.6926(5) 0.3593(5)
H16 H 0.1118 0.6874 0.3488
O1 O 0.0931(4) 0.5174(3) 0.1182(3)
O2 O 0.0695(3) 0.5174(3) 0.0949(4)
C1 C 0.0779(4) 0.5254(5) 0.1100(4)
C2 C 0.0648(4) 0.5389(5) 0.1202(5)
C4 C 0.0707(5) 0.5480(5) 0.1369(4)
H4 H 0.0825 0.5435 0.1417
C9 C 0.1002(4) 0.5742(5) 0.2037(5)
H9 H 0.1065 0.5644 0.1966
C10 C 0.1063(5) 0.5818(5) 0.2210(4)
H10 H 0.1175 0.5768 0.2267
C15 C 0.1340(5) 0.6126(5) 0.2897(5)
H15 H 0.1423 0.6042 0.2830
C16 C 0.1407(5) 0.6186(5) 0.3074(5)
H16 H 0.1512 0.6118 0.3126
Cu1 Cu 0.0000 0.60340(12) 0.10340(12)
Cu1 Cu 0.39660(12) 1.0000 0.10340(12)
Cu1 Cu 0.10340(12) 1.0000 0.39660(12)
Cu1 Cu 0.0000 0.89660(12) 0.39660(12)
Cu2 Cu 0.0000 0.58212(12) 0.08212(12)
Cu2 Cu 0.41788(12) 1.0000 0.08212(12)
Cu2 Cu 0.08212(12) 1.0000 0.41788(12)
Cu2 Cu 0.0000 0.91788(12) 0.41788(12)
C1 C 0.5779(4) 0.6100(4) 0.5254(5)
C2 C 0.5648(4) 0.6202(5) 0.5389(5)
C3 C 0.5493(5) 0.6134(7) 0.5493(5)
H3 H 0.5448 0.6014 0.5448
C4 C 0.5707(5) 0.6369(4) 0.5480(5)
H4 H 0.5825 0.6417 0.5435
C5 C 0.5625(6) 0.6480(8) 0.5625(6)
C6 C 0.5692(6) 0.6664(8) 0.5692(6)
C7 C 0.5744(6) 0.6821(8) 0.5744(6)
C8 C 0.5833(6) 0.6985(8) 0.5833(6)
C9 C 0.6002(4) 0.7037(5) 0.5742(5)
H9 H 0.6065 0.6966 0.5644
C10 C 0.6063(5) 0.7210(4) 0.5818(5)
H10 H 0.6175 0.7267 0.5768
C11 C 0.5965(6) 0.7300(8) 0.5965(6)
C12 C 0.6033(5) 0.7482(9) 0.6033(5)
C13 C 0.6114(6) 0.7614(8) 0.6114(6)
C14 C 0.6171(6) 0.7804(8) 0.6171(6)
C15 C 0.6340(5) 0.7897(5) 0.6126(5)
H15 H 0.6423 0.7830 0.6042
C16 C 0.6407(5) 0.8074(5) 0.6186(5)
H16 H 0.6512 0.8126 0.6118
C17 C 0.6336(6) 0.8183(8) 0.6336(6)
C18 C 0.6403(7) 0.8366(8) 0.6403(7)
C19 C 0.6299(7) 0.8451(6) 0.6549(6)
H19 H 0.6174 0.8414 0.6586
O1 O 0.5174(3) 0.9069(4) 0.8818(3)
O2 O 0.5174(3) 0.9305(3) 0.9051(4)
C1 C 0.5254(5) 0.9221(4) 0.8900(4)
C2 C 0.5389(5) 0.9352(4) 0.8798(5)
C3 C 0.5493(5) 0.9507(5) 0.8866(7)
H3 H 0.5448 0.9552 0.8986
C4 C 0.5480(5) 0.9293(5) 0.8631(4)
H4 H 0.5435 0.9175 0.8583
C5 C 0.5625(6) 0.9375(6) 0.8520(8)
C6 C 0.5692(6) 0.9308(6) 0.8336(8)
C7 C 0.5744(6) 0.9256(6) 0.8179(8)
C8 C 0.5833(6) 0.9167(6) 0.8015(8)
C9 C 0.5742(5) 0.8998(4) 0.7963(5)
H9 H 0.5644 0.8935 0.8034
C10 C 0.5818(5) 0.8937(5) 0.7790(4)
H10 H 0.5768 0.8825 0.7733
C11 C 0.5965(6) 0.9035(6) 0.7700(8)
C12 C 0.6033(5) 0.8967(5) 0.7518(9)
C13 C 0.6114(6) 0.8886(6) 0.7386(8)
C14 C 0.6171(6) 0.8829(6) 0.7196(8)
C15 C 0.6126(5) 0.8660(5) 0.7103(5)
H15 H 0.6042 0.8577 0.7170
C16 C 0.6186(5) 0.8593(5) 0.6926(5)
H16 H 0.6118 0.8488 0.6874
C17 C 0.6336(6) 0.8664(6) 0.6817(8)
C18 C 0.6403(7) 0.8597(7) 0.6634(8)
C19 C 0.6549(6) 0.8701(7) 0.6549(6)
H19 H 0.6586 0.8826 0.6586
O1 O 0.8818(3) 0.9826(3) 0.5931(4)
O2 O 0.9051(4) 0.9826(3) 0.5695(3)
C1 C 0.8900(4) 0.9746(5) 0.5779(4)
C2 C 0.8798(5) 0.9611(5) 0.5648(4)
C3 C 0.8866(7) 0.9507(5) 0.5493(5)
H3 H 0.8986 0.9552 0.5448
C4 C 0.8631(4) 0.9520(5) 0.5707(5)
H4 H 0.8583 0.9565 0.5825
C5 C 0.8520(8) 0.9375(6) 0.5625(6)
C6 C 0.8336(8) 0.9308(6) 0.5692(6)
C7 C 0.8179(8) 0.9256(6) 0.5744(6)
C8 C 0.8015(8) 0.9167(6) 0.5833(6)
C9 C 0.7963(5) 0.9258(5) 0.6002(4)
H9 H 0.8034 0.9356 0.6065
C10 C 0.7790(4) 0.9182(5) 0.6063(5)
H10 H 0.7733 0.9232 0.6175
C11 C 0.7700(8) 0.9035(6) 0.5965(6)
C12 C 0.7518(9) 0.8967(5) 0.6033(5)
C13 C 0.7386(8) 0.8886(6) 0.6114(6)
C14 C 0.7196(8) 0.8829(6) 0.6171(6)
C15 C 0.7103(5) 0.8874(5) 0.6340(5)
H15 H 0.7170 0.8958 0.6423
C16 C 0.6926(5) 0.8814(5) 0.6407(5)
H16 H 0.6874 0.8882 0.6512
C17 C 0.6817(8) 0.8664(6) 0.6336(6)
C18 C 0.6634(8) 0.8597(7) 0.6403(7)
C19 C 0.6549(6) 0.8451(6) 0.6299(7)
H19 H 0.6586 0.8414 0.6174
C1 C 0.5254(5) 0.6100(4) 0.5779(4)
C2 C 0.5389(5) 0.6202(5) 0.5648(4)
C4 C 0.5480(5) 0.6369(4) 0.5707(5)
H4 H 0.5435 0.6417 0.5825
C9 C 0.5742(5) 0.7037(5) 0.6002(4)
H9 H 0.5644 0.6966 0.6065
C10 C 0.5818(5) 0.7210(4) 0.6063(5)
H10 H 0.5768 0.7267 0.6175
C15 C 0.6126(5) 0.7897(5) 0.6340(5)
H15 H 0.6042 0.7830 0.6423
C16 C 0.6186(5) 0.8074(5) 0.6407(5)
H16 H 0.6118 0.8126 0.6512
O1 O 0.5931(4) 0.9826(3) 0.8818(3)
O2 O 0.5695(3) 0.9826(3) 0.9051(4)
C1 C 0.5779(4) 0.9746(5) 0.8900(4)
C2 C 0.5648(4) 0.9611(5) 0.8798(5)
C4 C 0.5707(5) 0.9520(5) 0.8631(4)
H4 H 0.5825 0.9565 0.8583
C9 C 0.6002(4) 0.9258(5) 0.7963(5)
H9 H 0.6065 0.9356 0.8034
C10 C 0.6063(5) 0.9182(5) 0.7790(4)
H10 H 0.6175 0.9232 0.7733
C15 C 0.6340(5) 0.8874(5) 0.7103(5)
H15 H 0.6423 0.8958 0.7170
C16 C 0.6407(5) 0.8814(5) 0.6926(5)
H16 H 0.6512 0.8882 0.6874
O1 O 0.8818(3) 0.9069(4) 0.5174(3)
O2 O 0.9051(4) 0.9305(3) 0.5174(3)
C1 C 0.8900(4) 0.9221(4) 0.5254(5)
C2 C 0.8798(5) 0.9352(4) 0.5389(5)
C4 C 0.8631(4) 0.9293(5) 0.5480(5)
H4 H 0.8583 0.9175 0.5435
C9 C 0.7963(5) 0.8998(4) 0.5742(5)
H9 H 0.8034 0.8935 0.5644
C10 C 0.7790(4) 0.8937(5) 0.5818(5)
H10 H 0.7733 0.8825 0.5768
C15 C 0.7103(5) 0.8660(5) 0.6126(5)
H15 H 0.7170 0.8577 0.6042
C16 C 0.6926(5) 0.8593(5) 0.6186(5)
H16 H 0.6874 0.8488 0.6118
C1 C 0.6100(4) 0.5254(5) 0.5779(4)
C2 C 0.6202(5) 0.5389(5) 0.5648(4)
C3 C 0.6134(7) 0.5493(5) 0.5493(5)
H3 H 0.6014 0.5448 0.5448
C4 C 0.6369(4) 0.5480(5) 0.5707(5)
H4 H 0.6417 0.5435 0.5825
C5 C 0.6480(8) 0.5625(6) 0.5625(6)
C6 C 0.6664(8) 0.5692(6) 0.5692(6)
C7 C 0.6821(8) 0.5744(6) 0.5744(6)
C8 C 0.6985(8) 0.5833(6) 0.5833(6)
C9 C 0.7037(5) 0.5742(5) 0.6002(4)
H9 H 0.6966 0.5644 0.6065
C10 C 0.7210(4) 0.5818(5) 0.6063(5)
H10 H 0.7267 0.5768 0.6175
C11 C 0.7300(8) 0.5965(6) 0.5965(6)
C12 C 0.7482(9) 0.6033(5) 0.6033(5)
C13 C 0.7614(8) 0.6114(6) 0.6114(6)
C14 C 0.7804(8) 0.6171(6) 0.6171(6)
C15 C 0.7897(5) 0.6126(5) 0.6340(5)
H15 H 0.7830 0.6042 0.6423
C16 C 0.8074(5) 0.6186(5) 0.6407(5)
H16 H 0.8126 0.6118 0.6512
C17 C 0.8183(8) 0.6336(6) 0.6336(6)
C18 C 0.8366(8) 0.6403(7) 0.6403(7)
C19 C 0.8451(6) 0.6549(6) 0.6299(7)
H19 H 0.8414 0.6586 0.6174
O1 O 0.9069(4) 0.8818(3) 0.5174(3)
O2 O 0.9305(3) 0.9051(4) 0.5174(3)
C1 C 0.9221(4) 0.8900(4) 0.5254(5)
C2 C 0.9352(4) 0.8798(5) 0.5389(5)
C3 C 0.9507(5) 0.8866(7) 0.5493(5)
H3 H 0.9552 0.8986 0.5448
C4 C 0.9293(5) 0.8631(4) 0.5480(5)
H4 H 0.9175 0.8583 0.5435
C5 C 0.9375(6) 0.8520(8) 0.5625(6)
C6 C 0.9308(6) 0.8336(8) 0.5692(6)
C7 C 0.9256(6) 0.8179(8) 0.5744(6)
C8 C 0.9167(6) 0.8015(8) 0.5833(6)
C9 C 0.8998(4) 0.7963(5) 0.5742(5)
H9 H 0.8935 0.8034 0.5644
C10 C 0.8937(5) 0.7790(4) 0.5818(5)
H10 H 0.8825 0.7733 0.5768
C11 C 0.9035(6) 0.7700(8) 0.5965(6)
C12 C 0.8967(5) 0.7518(9) 0.6033(5)
C13 C 0.8886(6) 0.7386(8) 0.6114(6)
C14 C 0.8829(6) 0.7196(8) 0.6171(6)
C15 C 0.8660(5) 0.7103(5) 0.6126(5)
H15 H 0.8577 0.7170 0.6042
C16 C 0.8593(5) 0.6926(5) 0.6186(5)
H16 H 0.8488 0.6874 0.6118
C17 C 0.8664(6) 0.6817(8) 0.6336(6)
C18 C 0.8597(7) 0.6634(8) 0.6403(7)
C19 C 0.8701(7) 0.6549(6) 0.6549(6)
H19 H 0.8826 0.6586 0.6586
O1 O 0.9826(3) 0.5931(4) 0.8818(3)
O2 O 0.9826(3) 0.5695(3) 0.9051(4)
C1 C 0.9746(5) 0.5779(4) 0.8900(4)
C2 C 0.9611(5) 0.5648(4) 0.8798(5)
C3 C 0.9507(5) 0.5493(5) 0.8866(7)
H3 H 0.9552 0.5448 0.8986
C4 C 0.9520(5) 0.5707(5) 0.8631(4)
H4 H 0.9565 0.5825 0.8583
C5 C 0.9375(6) 0.5625(6) 0.8520(8)
C6 C 0.9308(6) 0.5692(6) 0.8336(8)
C7 C 0.9256(6) 0.5744(6) 0.8179(8)
C8 C 0.9167(6) 0.5833(6) 0.8015(8)
C9 C 0.9258(5) 0.6002(4) 0.7963(5)
H9 H 0.9356 0.6065 0.8034
C10 C 0.9182(5) 0.6063(5) 0.7790(4)
H10 H 0.9232 0.6175 0.7733
C11 C 0.9035(6) 0.5965(6) 0.7700(8)
C12 C 0.8967(5) 0.6033(5) 0.7518(9)
C13 C 0.8886(6) 0.6114(6) 0.7386(8)
C14 C 0.8829(6) 0.6171(6) 0.7196(8)
C15 C 0.8874(5) 0.6340(5) 0.7103(5)
H15 H 0.8958 0.6423 0.7170
C16 C 0.8814(5) 0.6407(5) 0.6926(5)
H16 H 0.8882 0.6512 0.6874
C17 C 0.8664(6) 0.6336(6) 0.6817(8)
C18 C 0.8597(7) 0.6403(7) 0.6634(8)
C19 C 0.8451(6) 0.6299(7) 0.6549(6)
H19 H 0.8414 0.6174 0.6586
C1 C 0.6100(4) 0.5779(4) 0.5254(5)
C2 C 0.6202(5) 0.5648(4) 0.5389(5)
C4 C 0.6369(4) 0.5707(5) 0.5480(5)
H4 H 0.6417 0.5825 0.5435
C9 C 0.7037(5) 0.6002(4) 0.5742(5)
H9 H 0.6966 0.6065 0.5644
C10 C 0.7210(4) 0.6063(5) 0.5818(5)
H10 H 0.7267 0.6175 0.5768
C15 C 0.7897(5) 0.6340(5) 0.6126(5)
H15 H 0.7830 0.6423 0.6042
C16 C 0.8074(5) 0.6407(5) 0.6186(5)
H16 H 0.8126 0.6512 0.6118
O1 O 0.9826(3) 0.8818(3) 0.5931(4)
O2 O 0.9826(3) 0.9051(4) 0.5695(3)
C1 C 0.9746(5) 0.8900(4) 0.5779(4)
C2 C 0.9611(5) 0.8798(5) 0.5648(4)
C4 C 0.9520(5) 0.8631(4) 0.5707(5)
H4 H 0.9565 0.8583 0.5825
C9 C 0.9258(5) 0.7963(5) 0.6002(4)
H9 H 0.9356 0.8034 0.6065
C10 C 0.9182(5) 0.7790(4) 0.6063(5)
H10 H 0.9232 0.7733 0.6175
C15 C 0.8874(5) 0.7103(5) 0.6340(5)
H15 H 0.8958 0.7170 0.6423
C16 C 0.8814(5) 0.6926(5) 0.6407(5)
H16 H 0.8882 0.6874 0.6512
O1 O 0.9069(4) 0.5174(3) 0.8818(3)
O2 O 0.9305(3) 0.5174(3) 0.9051(4)
C1 C 0.9221(4) 0.5254(5) 0.8900(4)
C2 C 0.9352(4) 0.5389(5) 0.8798(5)
C4 C 0.9293(5) 0.5480(5) 0.8631(4)
H4 H 0.9175 0.5435 0.8583
C9 C 0.8998(4) 0.5742(5) 0.7963(5)
H9 H 0.8935 0.5644 0.8034
C10 C 0.8937(5) 0.5818(5) 0.7790(4)
H10 H 0.8825 0.5768 0.7733
C15 C 0.8660(5) 0.6126(5) 0.7103(5)
H15 H 0.8577 0.6042 0.7170
C16 C 0.8593(5) 0.6186(5) 0.6926(5)
H16 H 0.8488 0.6118 0.6874
Cu1 Cu 1.0000 0.60340(12) 0.89660(12)
Cu1 Cu 0.60340(12) 1.0000 0.89660(12)
Cu1 Cu 0.89660(12) 1.0000 0.60340(12)
Cu1 Cu 1.0000 0.89660(12) 0.60340(12)
Cu2 Cu 1.0000 0.58212(12) 0.91788(12)
Cu2 Cu 0.58212(12) 1.0000 0.91788(12)
Cu2 Cu 0.91788(12) 1.0000 0.58212(12)
Cu2 Cu 1.0000 0.91788(12) 0.58212(12)
C1 C 0.4221(4) 0.3900(4) 0.5254(5)
C2 C 0.4352(4) 0.3798(5) 0.5389(5)
C3 C 0.4507(5) 0.3866(7) 0.5493(5)
H3 H 0.4552 0.3986 0.5448
C4 C 0.4293(5) 0.3631(4) 0.5480(5)
H4 H 0.4175 0.3583 0.5435
C5 C 0.4375(6) 0.3520(8) 0.5625(6)
C6 C 0.4308(6) 0.3336(8) 0.5692(6)
C7 C 0.4256(6) 0.3179(8) 0.5744(6)
C8 C 0.4167(6) 0.3015(8) 0.5833(6)
C9 C 0.3998(4) 0.2963(5) 0.5742(5)
H9 H 0.3935 0.3034 0.5644
C10 C 0.3937(5) 0.2790(4) 0.5818(5)
H10 H 0.3825 0.2733 0.5768
C11 C 0.4035(6) 0.2700(8) 0.5965(6)
C12 C 0.3967(5) 0.2518(9) 0.6033(5)
C13 C 0.3886(6) 0.2386(8) 0.6114(6)
C14 C 0.3829(6) 0.2196(8) 0.6171(6)
C15 C 0.3660(5) 0.2103(5) 0.6126(5)
H15 H 0.3577 0.2170 0.6042
C16 C 0.3593(5) 0.1926(5) 0.6186(5)
H16 H 0.3488 0.1874 0.6118
C17 C 0.3664(6) 0.1817(8) 0.6336(6)
C18 C 0.3597(7) 0.1634(8) 0.6403(7)
C19 C 0.3701(7) 0.1549(6) 0.6549(6)
H19 H 0.3826 0.1586 0.6586
O1 O 0.4826(3) 0.0931(4) 0.8818(3)
O2 O 0.4826(3) 0.0695(3) 0.9051(4)
C1 C 0.4746(5) 0.0779(4) 0.8900(4)
C2 C 0.4611(5) 0.0648(4) 0.8798(5)
C3 C 0.4507(5) 0.0493(5) 0.8866(7)
H3 H 0.4552 0.0448 0.8986
C4 C 0.4520(5) 0.0707(5) 0.8631(4)
H4 H 0.4565 0.0825 0.8583
C5 C 0.4375(6) 0.0625(6) 0.8520(8)
C6 C 0.4308(6) 0.0692(6) 0.8336(8)
C7 C 0.4256(6) 0.0744(6) 0.8179(8)
C8 C 0.4167(6) 0.0833(6) 0.8015(8)
C9 C 0.4258(5) 0.1002(4) 0.7963(5)
H9 H 0.4356 0.1065 0.8034
C10 C 0.4182(5) 0.1063(5) 0.7790(4)
H10 H 0.4232 0.1175 0.7733
C11 C 0.4035(6) 0.0965(6) 0.7700(8)
C12 C 0.3967(5) 0.1033(5) 0.7518(9)
C13 C 0.3886(6) 0.1114(6) 0.7386(8)
C14 C 0.3829(6) 0.1171(6) 0.7196(8)
C15 C 0.3874(5) 0.1340(5) 0.7103(5)
H15 H 0.3958 0.1423 0.7170
C16 C 0.3814(5) 0.1407(5) 0.6926(5)
H16 H 0.3882 0.1512 0.6874
C17 C 0.3664(6) 0.1336(6) 0.6817(8)
C18 C 0.3597(7) 0.1403(7) 0.6634(8)
C19 C 0.3451(6) 0.1299(7) 0.6549(6)
H19 H 0.3414 0.1174 0.6586
O1 O 0.1182(3) 0.0174(3) 0.5931(4)
O2 O 0.0949(4) 0.0174(3) 0.5695(3)
C1 C 0.1100(4) 0.0254(5) 0.5779(4)
C2 C 0.1202(5) 0.0389(5) 0.5648(4)
C3 C 0.1134(7) 0.0493(5) 0.5493(5)
H3 H 0.1014 0.0448 0.5448
C4 C 0.1369(4) 0.0480(5) 0.5707(5)
H4 H 0.1417 0.0435 0.5825
C5 C 0.1480(8) 0.0625(6) 0.5625(6)
C6 C 0.1664(8) 0.0692(6) 0.5692(6)
C7 C 0.1821(8) 0.0744(6) 0.5744(6)
C8 C 0.1985(8) 0.0833(6) 0.5833(6)
C9 C 0.2037(5) 0.0742(5) 0.6002(4)
H9 H 0.1966 0.0644 0.6065
C10 C 0.2210(4) 0.0818(5) 0.6063(5)
H10 H 0.2267 0.0768 0.6175
C11 C 0.2300(8) 0.0965(6) 0.5965(6)
C12 C 0.2482(9) 0.1033(5) 0.6033(5)
C13 C 0.2614(8) 0.1114(6) 0.6114(6)
C14 C 0.2804(8) 0.1171(6) 0.6171(6)
C15 C 0.2897(5) 0.1126(5) 0.6340(5)
H15 H 0.2830 0.1042 0.6423
C16 C 0.3074(5) 0.1186(5) 0.6407(5)
H16 H 0.3126 0.1118 0.6512
C17 C 0.3183(8) 0.1336(6) 0.6336(6)
C18 C 0.3366(8) 0.1403(7) 0.6403(7)
C19 C 0.3451(6) 0.1549(6) 0.6299(7)
H19 H 0.3414 0.1586 0.6174
C1 C 0.4746(5) 0.3900(4) 0.5779(4)
C2 C 0.4611(5) 0.3798(5) 0.5648(4)
C4 C 0.4520(5) 0.3631(4) 0.5707(5)
H4 H 0.4565 0.3583 0.5825
C9 C 0.4258(5) 0.2963(5) 0.6002(4)
H9 H 0.4356 0.3034 0.6065
C10 C 0.4182(5) 0.2790(4) 0.6063(5)
H10 H 0.4232 0.2733 0.6175
C15 C 0.3874(5) 0.2103(5) 0.6340(5)
H15 H 0.3958 0.2170 0.6423
C16 C 0.3814(5) 0.1926(5) 0.6407(5)
H16 H 0.3882 0.1874 0.6512
O1 O 0.4069(4) 0.0174(3) 0.8818(3)
O2 O 0.4305(3) 0.0174(3) 0.9051(4)
C1 C 0.4221(4) 0.0254(5) 0.8900(4)
C2 C 0.4352(4) 0.0389(5) 0.8798(5)
C4 C 0.4293(5) 0.0480(5) 0.8631(4)
H4 H 0.4175 0.0435 0.8583
C9 C 0.3998(4) 0.0742(5) 0.7963(5)
H9 H 0.3935 0.0644 0.8034
C10 C 0.3937(5) 0.0818(5) 0.7790(4)
H10 H 0.3825 0.0768 0.7733
C15 C 0.3660(5) 0.1126(5) 0.7103(5)
H15 H 0.3577 0.1042 0.7170
C16 C 0.3593(5) 0.1186(5) 0.6926(5)
H16 H 0.3488 0.1118 0.6874
O1 O 0.1182(3) 0.0931(4) 0.5174(3)
O2 O 0.0949(4) 0.0695(3) 0.5174(3)
C1 C 0.1100(4) 0.0779(4) 0.5254(5)
C2 C 0.1202(5) 0.0648(4) 0.5389(5)
C4 C 0.1369(4) 0.0707(5) 0.5480(5)
H4 H 0.1417 0.0825 0.5435
C9 C 0.2037(5) 0.1002(4) 0.5742(5)
H9 H 0.1966 0.1065 0.5644
C10 C 0.2210(4) 0.1063(5) 0.5818(5)
H10 H 0.2267 0.1175 0.5768
C15 C 0.2897(5) 0.1340(5) 0.6126(5)
H15 H 0.2830 0.1423 0.6042
C16 C 0.3074(5) 0.1407(5) 0.6186(5)
H16 H 0.3126 0.1512 0.6118
C1 C 0.3900(4) 0.4746(5) 0.5779(4)
C2 C 0.3798(5) 0.4611(5) 0.5648(4)
C3 C 0.3866(7) 0.4507(5) 0.5493(5)
H3 H 0.3986 0.4552 0.5448
C4 C 0.3631(4) 0.4520(5) 0.5707(5)
H4 H 0.3583 0.4565 0.5825
C5 C 0.3520(8) 0.4375(6) 0.5625(6)
C6 C 0.3336(8) 0.4308(6) 0.5692(6)
C7 C 0.3179(8) 0.4256(6) 0.5744(6)
C8 C 0.3015(8) 0.4167(6) 0.5833(6)
C9 C 0.2963(5) 0.4258(5) 0.6002(4)
H9 H 0.3034 0.4356 0.6065
C10 C 0.2790(4) 0.4182(5) 0.6063(5)
H10 H 0.2733 0.4232 0.6175
C11 C 0.2700(8) 0.4035(6) 0.5965(6)
C12 C 0.2518(9) 0.3967(5) 0.6033(5)
C13 C 0.2386(8) 0.3886(6) 0.6114(6)
C14 C 0.2196(8) 0.3829(6) 0.6171(6)
C15 C 0.2103(5) 0.3874(5) 0.6340(5)
H15 H 0.2170 0.3958 0.6423
C16 C 0.1926(5) 0.3814(5) 0.6407(5)
H16 H 0.1874 0.3882 0.6512
C17 C 0.1817(8) 0.3664(6) 0.6336(6)
C18 C 0.1634(8) 0.3597(7) 0.6403(7)
C19 C 0.1549(6) 0.3451(6) 0.6299(7)
H19 H 0.1586 0.3414 0.6174
O1 O 0.0931(4) 0.1182(3) 0.5174(3)
O2 O 0.0695(3) 0.0949(4) 0.5174(3)
C1 C 0.0779(4) 0.1100(4) 0.5254(5)
C2 C 0.0648(4) 0.1202(5) 0.5389(5)
C3 C 0.0493(5) 0.1134(7) 0.5493(5)
H3 H 0.0448 0.1014 0.5448
C4 C 0.0707(5) 0.1369(4) 0.5480(5)
H4 H 0.0825 0.1417 0.5435
C5 C 0.0625(6) 0.1480(8) 0.5625(6)
C6 C 0.0692(6) 0.1664(8) 0.5692(6)
C7 C 0.0744(6) 0.1821(8) 0.5744(6)
C8 C 0.0833(6) 0.1985(8) 0.5833(6)
C9 C 0.1002(4) 0.2037(5) 0.5742(5)
H9 H 0.1065 0.1966 0.5644
C10 C 0.1063(5) 0.2210(4) 0.5818(5)
H10 H 0.1175 0.2267 0.5768
C11 C 0.0965(6) 0.2300(8) 0.5965(6)
C12 C 0.1033(5) 0.2482(9) 0.6033(5)
C13 C 0.1114(6) 0.2614(8) 0.6114(6)
C14 C 0.1171(6) 0.2804(8) 0.6171(6)
C15 C 0.1340(5) 0.2897(5) 0.6126(5)
H15 H 0.1423 0.2830 0.6042
C16 C 0.1407(5) 0.3074(5) 0.6186(5)
H16 H 0.1512 0.3126 0.6118
C17 C 0.1336(6) 0.3183(8) 0.6336(6)
C18 C 0.1403(7) 0.3366(8) 0.6403(7)
C19 C 0.1299(7) 0.3451(6) 0.6549(6)
H19 H 0.1174 0.3414 0.6586
O1 O 0.0174(3) 0.4069(4) 0.8818(3)
O2 O 0.0174(3) 0.4305(3) 0.9051(4)
C1 C 0.0254(5) 0.4221(4) 0.8900(4)
C2 C 0.0389(5) 0.4352(4) 0.8798(5)
C3 C 0.0493(5) 0.4507(5) 0.8866(7)
H3 H 0.0448 0.4552 0.8986
C4 C 0.0480(5) 0.4293(5) 0.8631(4)
H4 H 0.0435 0.4175 0.8583
C5 C 0.0625(6) 0.4375(6) 0.8520(8)
C6 C 0.0692(6) 0.4308(6) 0.8336(8)
C7 C 0.0744(6) 0.4256(6) 0.8179(8)
C8 C 0.0833(6) 0.4167(6) 0.8015(8)
C9 C 0.0742(5) 0.3998(4) 0.7963(5)
H9 H 0.0644 0.3935 0.8034
C10 C 0.0818(5) 0.3937(5) 0.7790(4)
H10 H 0.0768 0.3825 0.7733
C11 C 0.0965(6) 0.4035(6) 0.7700(8)
C12 C 0.1033(5) 0.3967(5) 0.7518(9)
C13 C 0.1114(6) 0.3886(6) 0.7386(8)
C14 C 0.1171(6) 0.3829(6) 0.7196(8)
C15 C 0.1126(5) 0.3660(5) 0.7103(5)
H15 H 0.1042 0.3577 0.7170
C16 C 0.1186(5) 0.3593(5) 0.6926(5)
H16 H 0.1118 0.3488 0.6874
C17 C 0.1336(6) 0.3664(6) 0.6817(8)
C18 C 0.1403(7) 0.3597(7) 0.6634(8)
C19 C 0.1549(6) 0.3701(7) 0.6549(6)
H19 H 0.1586 0.3826 0.6586
C1 C 0.3900(4) 0.4221(4) 0.5254(5)
C2 C 0.3798(5) 0.4352(4) 0.5389(5)
C4 C 0.3631(4) 0.4293(5) 0.5480(5)
H4 H 0.3583 0.4175 0.5435
C9 C 0.2963(5) 0.3998(4) 0.5742(5)
H9 H 0.3034 0.3935 0.5644
C10 C 0.2790(4) 0.3937(5) 0.5818(5)
H10 H 0.2733 0.3825 0.5768
C15 C 0.2103(5) 0.3660(5) 0.6126(5)
H15 H 0.2170 0.3577 0.6042
C16 C 0.1926(5) 0.3593(5) 0.6186(5)
H16 H 0.1874 0.3488 0.6118
O1 O 0.0174(3) 0.1182(3) 0.5931(4)
O2 O 0.0174(3) 0.0949(4) 0.5695(3)
C1 C 0.0254(5) 0.1100(4) 0.5779(4)
C2 C 0.0389(5) 0.1202(5) 0.5648(4)
C4 C 0.0480(5) 0.1369(4) 0.5707(5)
H4 H 0.0435 0.1417 0.5825
C9 C 0.0742(5) 0.2037(5) 0.6002(4)
H9 H 0.0644 0.1966 0.6065
C10 C 0.0818(5) 0.2210(4) 0.6063(5)
H10 H 0.0768 0.2267 0.6175
C15 C 0.1126(5) 0.2897(5) 0.6340(5)
H15 H 0.1042 0.2830 0.6423
C16 C 0.1186(5) 0.3074(5) 0.6407(5)
H16 H 0.1118 0.3126 0.6512
O1 O 0.0931(4) 0.4826(3) 0.8818(3)
O2 O 0.0695(3) 0.4826(3) 0.9051(4)
C1 C 0.0779(4) 0.4746(5) 0.8900(4)
C2 C 0.0648(4) 0.4611(5) 0.8798(5)
C4 C 0.0707(5) 0.4520(5) 0.8631(4)
H4 H 0.0825 0.4565 0.8583
C9 C 0.1002(4) 0.4258(5) 0.7963(5)
H9 H 0.1065 0.4356 0.8034
C10 C 0.1063(5) 0.4182(5) 0.7790(4)
H10 H 0.1175 0.4232 0.7733
C15 C 0.1340(5) 0.3874(5) 0.7103(5)
H15 H 0.1423 0.3958 0.7170
C16 C 0.1407(5) 0.3814(5) 0.6926(5)
H16 H 0.1512 0.3882 0.6874
Cu1 Cu 0.0000 0.39660(12) 0.89660(12)
Cu1 Cu 0.39660(12) 0.0000 0.89660(12)
Cu1 Cu 0.10340(12) 0.0000 0.60340(12)
Cu1 Cu 0.0000 0.10340(12) 0.60340(12)
Cu2 Cu 0.0000 0.41788(12) 0.91788(12)
Cu2 Cu 0.41788(12) 0.0000 0.91788(12)
Cu2 Cu 0.08212(12) 0.0000 0.58212(12)
Cu2 Cu 0.0000 0.08212(12) 0.58212(12)
C1 C 0.4746(5) 0.5779(4) 0.3900(4)
C2 C 0.4611(5) 0.5648(4) 0.3798(5)
C3 C 0.4507(5) 0.5493(5) 0.3866(7)
H3 H 0.4552 0.5448 0.3986
C4 C 0.4520(5) 0.5707(5) 0.3631(4)
H4 H 0.4565 0.5825 0.3583
C5 C 0.4375(6) 0.5625(6) 0.3520(8)
C6 C 0.4308(6) 0.5692(6) 0.3336(8)
C7 C 0.4256(6) 0.5744(6) 0.3179(8)
C8 C 0.4167(6) 0.5833(6) 0.3015(8)
C9 C 0.4258(5) 0.6002(4) 0.2963(5)
H9 H 0.4356 0.6065 0.3034
C10 C 0.4182(5) 0.6063(5) 0.2790(4)
H10 H 0.4232 0.6175 0.2733
C11 C 0.4035(6) 0.5965(6) 0.2700(8)
C12 C 0.3967(5) 0.6033(5) 0.2518(9)
C13 C 0.3886(6) 0.6114(6) 0.2386(8)
C14 C 0.3829(6) 0.6171(6) 0.2196(8)
C15 C 0.3874(5) 0.6340(5) 0.2103(5)
H15 H 0.3958 0.6423 0.2170
C16 C 0.3814(5) 0.6407(5) 0.1926(5)
H16 H 0.3882 0.6512 0.1874
C17 C 0.3664(6) 0.6336(6) 0.1817(8)
C18 C 0.3597(7) 0.6403(7) 0.1634(8)
C19 C 0.3451(6) 0.6299(7) 0.1549(6)
H19 H 0.3414 0.6174 0.1586
O1 O 0.1182(3) 0.5174(3) 0.0931(4)
O2 O 0.0949(4) 0.5174(3) 0.0695(3)
C1 C 0.1100(4) 0.5254(5) 0.0779(4)
C2 C 0.1202(5) 0.5389(5) 0.0648(4)
C3 C 0.1134(7) 0.5493(5) 0.0493(5)
H3 H 0.1014 0.5448 0.0448
C4 C 0.1369(4) 0.5480(5) 0.0707(5)
H4 H 0.1417 0.5435 0.0825
C5 C 0.1480(8) 0.5625(6) 0.0625(6)
C6 C 0.1664(8) 0.5692(6) 0.0692(6)
C7 C 0.1821(8) 0.5744(6) 0.0744(6)
C8 C 0.1985(8) 0.5833(6) 0.0833(6)
C9 C 0.2037(5) 0.5742(5) 0.1002(4)
H9 H 0.1966 0.5644 0.1065
C10 C 0.2210(4) 0.5818(5) 0.1063(5)
H10 H 0.2267 0.5768 0.1175
C11 C 0.2300(8) 0.5965(6) 0.0965(6)
C12 C 0.2482(9) 0.6033(5) 0.1033(5)
C13 C 0.2614(8) 0.6114(6) 0.1114(6)
C14 C 0.2804(8) 0.6171(6) 0.1171(6)
C15 C 0.2897(5) 0.6126(5) 0.1340(5)
H15 H 0.2830 0.6042 0.1423
C16 C 0.3074(5) 0.6186(5) 0.1407(5)
H16 H 0.3126 0.6118 0.1512
C17 C 0.3183(8) 0.6336(6) 0.1336(6)
C18 C 0.3366(8) 0.6403(7) 0.1403(7)
C19 C 0.3451(6) 0.6549(6) 0.1299(7)
H19 H 0.3414 0.6586 0.1174
O1 O 0.4069(4) 0.8818(3) 0.0174(3)
O2 O 0.4305(3) 0.9051(4) 0.0174(3)
C1 C 0.4221(4) 0.8900(4) 0.0254(5)
C2 C 0.4352(4) 0.8798(5) 0.0389(5)
C3 C 0.4507(5) 0.8866(7) 0.0493(5)
H3 H 0.4552 0.8986 0.0448
C4 C 0.4293(5) 0.8631(4) 0.0480(5)
H4 H 0.4175 0.8583 0.0435
C5 C 0.4375(6) 0.8520(8) 0.0625(6)
C6 C 0.4308(6) 0.8336(8) 0.0692(6)
C7 C 0.4256(6) 0.8179(8) 0.0744(6)
C8 C 0.4167(6) 0.8015(8) 0.0833(6)
C9 C 0.3998(4) 0.7963(5) 0.0742(5)
H9 H 0.3935 0.8034 0.0644
C10 C 0.3937(5) 0.7790(4) 0.0818(5)
H10 H 0.3825 0.7733 0.0768
C11 C 0.4035(6) 0.7700(8) 0.0965(6)
C12 C 0.3967(5) 0.7518(9) 0.1033(5)
C13 C 0.3886(6) 0.7386(8) 0.1114(6)
C14 C 0.3829(6) 0.7196(8) 0.1171(6)
C15 C 0.3660(5) 0.7103(5) 0.1126(5)
H15 H 0.3577 0.7170 0.1042
C16 C 0.3593(5) 0.6926(5) 0.1186(5)
H16 H 0.3488 0.6874 0.1118
C17 C 0.3664(6) 0.6817(8) 0.1336(6)
C18 C 0.3597(7) 0.6634(8) 0.1403(7)
C19 C 0.3701(7) 0.6549(6) 0.1549(6)
H19 H 0.3826 0.6586 0.1586
C1 C 0.4221(4) 0.5254(5) 0.3900(4)
C2 C 0.4352(4) 0.5389(5) 0.3798(5)
C4 C 0.4293(5) 0.5480(5) 0.3631(4)
H4 H 0.4175 0.5435 0.3583
C9 C 0.3998(4) 0.5742(5) 0.2963(5)
H9 H 0.3935 0.5644 0.3034
C10 C 0.3937(5) 0.5818(5) 0.2790(4)
H10 H 0.3825 0.5768 0.2733
C15 C 0.3660(5) 0.6126(5) 0.2103(5)
H15 H 0.3577 0.6042 0.2170
C16 C 0.3593(5) 0.6186(5) 0.1926(5)
H16 H 0.3488 0.6118 0.1874
O1 O 0.1182(3) 0.5931(4) 0.0174(3)
O2 O 0.0949(4) 0.5695(3) 0.0174(3)
C1 C 0.1100(4) 0.5779(4) 0.0254(5)
C2 C 0.1202(5) 0.5648(4) 0.0389(5)
C4 C 0.1369(4) 0.5707(5) 0.0480(5)
H4 H 0.1417 0.5825 0.0435
C9 C 0.2037(5) 0.6002(4) 0.0742(5)
H9 H 0.1966 0.6065 0.0644
C10 C 0.2210(4) 0.6063(5) 0.0818(5)
H10 H 0.2267 0.6175 0.0768
C15 C 0.2897(5) 0.6340(5) 0.1126(5)
H15 H 0.2830 0.6423 0.1042
C16 C 0.3074(5) 0.6407(5) 0.1186(5)
H16 H 0.3126 0.6512 0.1118
O1 O 0.4826(3) 0.8818(3) 0.0931(4)
O2 O 0.4826(3) 0.9051(4) 0.0695(3)
C1 C 0.4746(5) 0.8900(4) 0.0779(4)
C2 C 0.4611(5) 0.8798(5) 0.0648(4)
C4 C 0.4520(5) 0.8631(4) 0.0707(5)
H4 H 0.4565 0.8583 0.0825
C9 C 0.4258(5) 0.7963(5) 0.1002(4)
H9 H 0.4356 0.8034 0.1065
C10 C 0.4182(5) 0.7790(4) 0.1063(5)
H10 H 0.4232 0.7733 0.1175
C15 C 0.3874(5) 0.7103(5) 0.1340(5)
H15 H 0.3958 0.7170 0.1423
C16 C 0.3814(5) 0.6926(5) 0.1407(5)
H16 H 0.3882 0.6874 0.1512
Cu1 Cu 0.39660(12) 0.89660(12) 0.0000
Cu1 Cu 0.10340(12) 0.60340(12) 0.0000
Cu2 Cu 0.41788(12) 0.91788(12) 0.0000
Cu2 Cu 0.08212(12) 0.58212(12) 0.0000
C1 C 0.5254(5) 0.5779(4) 0.6100(4)
C2 C 0.5389(5) 0.5648(4) 0.6202(5)
C3 C 0.5493(5) 0.5493(5) 0.6134(7)
H3 H 0.5448 0.5448 0.6014
C4 C 0.5480(5) 0.5707(5) 0.6369(4)
H4 H 0.5435 0.5825 0.6417
C5 C 0.5625(6) 0.5625(6) 0.6480(8)
C6 C 0.5692(6) 0.5692(6) 0.6664(8)
C7 C 0.5744(6) 0.5744(6) 0.6821(8)
C8 C 0.5833(6) 0.5833(6) 0.6985(8)
C9 C 0.5742(5) 0.6002(4) 0.7037(5)
H9 H 0.5644 0.6065 0.6966
C10 C 0.5818(5) 0.6063(5) 0.7210(4)
H10 H 0.5768 0.6175 0.7267
C11 C 0.5965(6) 0.5965(6) 0.7300(8)
C12 C 0.6033(5) 0.6033(5) 0.7482(9)
C13 C 0.6114(6) 0.6114(6) 0.7614(8)
C14 C 0.6171(6) 0.6171(6) 0.7804(8)
C15 C 0.6126(5) 0.6340(5) 0.7897(5)
H15 H 0.6042 0.6423 0.7830
C16 C 0.6186(5) 0.6407(5) 0.8074(5)
H16 H 0.6118 0.6512 0.8126
C17 C 0.6336(6) 0.6336(6) 0.8183(8)
C18 C 0.6403(7) 0.6403(7) 0.8366(8)
C19 C 0.6549(6) 0.6299(7) 0.8451(6)
H19 H 0.6586 0.6174 0.8414
O1 O 0.8818(3) 0.5174(3) 0.9069(4)
O2 O 0.9051(4) 0.5174(3) 0.9305(3)
C1 C 0.8900(4) 0.5254(5) 0.9221(4)
C2 C 0.8798(5) 0.5389(5) 0.9352(4)
C3 C 0.8866(7) 0.5493(5) 0.9507(5)
H3 H 0.8986 0.5448 0.9552
C4 C 0.8631(4) 0.5480(5) 0.9293(5)
H4 H 0.8583 0.5435 0.9175
C5 C 0.8520(8) 0.5625(6) 0.9375(6)
C6 C 0.8336(8) 0.5692(6) 0.9308(6)
C7 C 0.8179(8) 0.5744(6) 0.9256(6)
C8 C 0.8015(8) 0.5833(6) 0.9167(6)
C9 C 0.7963(5) 0.5742(5) 0.8998(4)
H9 H 0.8034 0.5644 0.8935
C10 C 0.7790(4) 0.5818(5) 0.8937(5)
H10 H 0.7733 0.5768 0.8825
C11 C 0.7700(8) 0.5965(6) 0.9035(6)
C12 C 0.7518(9) 0.6033(5) 0.8967(5)
C13 C 0.7386(8) 0.6114(6) 0.8886(6)
C14 C 0.7196(8) 0.6171(6) 0.8829(6)
C15 C 0.7103(5) 0.6126(5) 0.8660(5)
H15 H 0.7170 0.6042 0.8577
C16 C 0.6926(5) 0.6186(5) 0.8593(5)
H16 H 0.6874 0.6118 0.8488
C17 C 0.6817(8) 0.6336(6) 0.8664(6)
C18 C 0.6634(8) 0.6403(7) 0.8597(7)
C19 C 0.6549(6) 0.6549(6) 0.8701(7)
H19 H 0.6586 0.6586 0.8826
O1 O 0.5931(4) 0.8818(3) 0.9826(3)
O2 O 0.5695(3) 0.9051(4) 0.9826(3)
C1 C 0.5779(4) 0.8900(4) 0.9746(5)
C2 C 0.5648(4) 0.8798(5) 0.9611(5)
C3 C 0.5493(5) 0.8866(7) 0.9507(5)
H3 H 0.5448 0.8986 0.9552
C4 C 0.5707(5) 0.8631(4) 0.9520(5)
H4 H 0.5825 0.8583 0.9565
C5 C 0.5625(6) 0.8520(8) 0.9375(6)
C6 C 0.5692(6) 0.8336(8) 0.9308(6)
C7 C 0.5744(6) 0.8179(8) 0.9256(6)
C8 C 0.5833(6) 0.8015(8) 0.9167(6)
C9 C 0.6002(4) 0.7963(5) 0.9258(5)
H9 H 0.6065 0.8034 0.9356
C10 C 0.6063(5) 0.7790(4) 0.9182(5)
H10 H 0.6175 0.7733 0.9232
C11 C 0.5965(6) 0.7700(8) 0.9035(6)
C12 C 0.6033(5) 0.7518(9) 0.8967(5)
C13 C 0.6114(6) 0.7386(8) 0.8886(6)
C14 C 0.6171(6) 0.7196(8) 0.8829(6)
C15 C 0.6340(5) 0.7103(5) 0.8874(5)
H15 H 0.6423 0.7170 0.8958
C16 C 0.6407(5) 0.6926(5) 0.8814(5)
H16 H 0.6512 0.6874 0.8882
C17 C 0.6336(6) 0.6817(8) 0.8664(6)
C18 C 0.6403(7) 0.6634(8) 0.8597(7)
C19 C 0.6299(7) 0.6549(6) 0.8451(6)
H19 H 0.6174 0.6586 0.8414
C1 C 0.5779(4) 0.5254(5) 0.6100(4)
C2 C 0.5648(4) 0.5389(5) 0.6202(5)
C4 C 0.5707(5) 0.5480(5) 0.6369(4)
H4 H 0.5825 0.5435 0.6417
C9 C 0.6002(4) 0.5742(5) 0.7037(5)
H9 H 0.6065 0.5644 0.6966
C10 C 0.6063(5) 0.5818(5) 0.7210(4)
H10 H 0.6175 0.5768 0.7267
C15 C 0.6340(5) 0.6126(5) 0.7897(5)
H15 H 0.6423 0.6042 0.7830
C16 C 0.6407(5) 0.6186(5) 0.8074(5)
H16 H 0.6512 0.6118 0.8126
O1 O 0.8818(3) 0.5931(4) 0.9826(3)
O2 O 0.9051(4) 0.5695(3) 0.9826(3)
C1 C 0.8900(4) 0.5779(4) 0.9746(5)
C2 C 0.8798(5) 0.5648(4) 0.9611(5)
C4 C 0.8631(4) 0.5707(5) 0.9520(5)
H4 H 0.8583 0.5825 0.9565
C9 C 0.7963(5) 0.6002(4) 0.9258(5)
H9 H 0.8034 0.6065 0.9356
C10 C 0.7790(4) 0.6063(5) 0.9182(5)
H10 H 0.7733 0.6175 0.9232
C15 C 0.7103(5) 0.6340(5) 0.8874(5)
H15 H 0.7170 0.6423 0.8958
C16 C 0.6926(5) 0.6407(5) 0.8814(5)
H16 H 0.6874 0.6512 0.8882
O1 O 0.5174(3) 0.8818(3) 0.9069(4)
O2 O 0.5174(3) 0.9051(4) 0.9305(3)
C1 C 0.5254(5) 0.8900(4) 0.9221(4)
C2 C 0.5389(5) 0.8798(5) 0.9352(4)
C4 C 0.5480(5) 0.8631(4) 0.9293(5)
H4 H 0.5435 0.8583 0.9175
C9 C 0.5742(5) 0.7963(5) 0.8998(4)
H9 H 0.5644 0.8034 0.8935
C10 C 0.5818(5) 0.7790(4) 0.8937(5)
H10 H 0.5768 0.7733 0.8825
C15 C 0.6126(5) 0.7103(5) 0.8660(5)
H15 H 0.6042 0.7170 0.8577
C16 C 0.6186(5) 0.6926(5) 0.8593(5)
H16 H 0.6118 0.6874 0.8488
Cu1 Cu 0.60340(12) 0.89660(12) 1.0000
Cu1 Cu 0.89660(12) 0.60340(12) 1.0000
Cu2 Cu 0.58212(12) 0.91788(12) 1.0000
Cu2 Cu 0.91788(12) 0.58212(12) 1.0000
C1 C 0.5254(5) 0.4221(4) 0.3900(4)
C2 C 0.5389(5) 0.4352(4) 0.3798(5)
C3 C 0.5493(5) 0.4507(5) 0.3866(7)
H3 H 0.5448 0.4552 0.3986
C4 C 0.5480(5) 0.4293(5) 0.3631(4)
H4 H 0.5435 0.4175 0.3583
C5 C 0.5625(6) 0.4375(6) 0.3520(8)
C6 C 0.5692(6) 0.4308(6) 0.3336(8)
C7 C 0.5744(6) 0.4256(6) 0.3179(8)
C8 C 0.5833(6) 0.4167(6) 0.3015(8)
C9 C 0.5742(5) 0.3998(4) 0.2963(5)
H9 H 0.5644 0.3935 0.3034
C10 C 0.5818(5) 0.3937(5) 0.2790(4)
H10 H 0.5768 0.3825 0.2733
C11 C 0.5965(6) 0.4035(6) 0.2700(8)
C12 C 0.6033(5) 0.3967(5) 0.2518(9)
C13 C 0.6114(6) 0.3886(6) 0.2386(8)
C14 C 0.6171(6) 0.3829(6) 0.2196(8)
C15 C 0.6126(5) 0.3660(5) 0.2103(5)
H15 H 0.6042 0.3577 0.2170
C16 C 0.6186(5) 0.3593(5) 0.1926(5)
H16 H 0.6118 0.3488 0.1874
C17 C 0.6336(6) 0.3664(6) 0.1817(8)
C18 C 0.6403(7) 0.3597(7) 0.1634(8)
C19 C 0.6549(6) 0.3701(7) 0.1549(6)
H19 H 0.6586 0.3826 0.1586
O1 O 0.8818(3) 0.4826(3) 0.0931(4)
O2 O 0.9051(4) 0.4826(3) 0.0695(3)
C1 C 0.8900(4) 0.4746(5) 0.0779(4)
C2 C 0.8798(5) 0.4611(5) 0.0648(4)
C3 C 0.8866(7) 0.4507(5) 0.0493(5)
H3 H 0.8986 0.4552 0.0448
C4 C 0.8631(4) 0.4520(5) 0.0707(5)
H4 H 0.8583 0.4565 0.0825
C5 C 0.8520(8) 0.4375(6) 0.0625(6)
C6 C 0.8336(8) 0.4308(6) 0.0692(6)
C7 C 0.8179(8) 0.4256(6) 0.0744(6)
C8 C 0.8015(8) 0.4167(6) 0.0833(6)
C9 C 0.7963(5) 0.4258(5) 0.1002(4)
H9 H 0.8034 0.4356 0.1065
C10 C 0.7790(4) 0.4182(5) 0.1063(5)
H10 H 0.7733 0.4232 0.1175
C11 C 0.7700(8) 0.4035(6) 0.0965(6)
C12 C 0.7518(9) 0.3967(5) 0.1033(5)
C13 C 0.7386(8) 0.3886(6) 0.1114(6)
C14 C 0.7196(8) 0.3829(6) 0.1171(6)
C15 C 0.7103(5) 0.3874(5) 0.1340(5)
H15 H 0.7170 0.3958 0.1423
C16 C 0.6926(5) 0.3814(5) 0.1407(5)
H16 H 0.6874 0.3882 0.1512
C17 C 0.6817(8) 0.3664(6) 0.1336(6)
C18 C 0.6634(8) 0.3597(7) 0.1403(7)
C19 C 0.6549(6) 0.3451(6) 0.1299(7)
H19 H 0.6586 0.3414 0.1174
O1 O 0.5931(4) 0.1182(3) 0.0174(3)
O2 O 0.5695(3) 0.0949(4) 0.0174(3)
C1 C 0.5779(4) 0.1100(4) 0.0254(5)
C2 C 0.5648(4) 0.1202(5) 0.0389(5)
C3 C 0.5493(5) 0.1134(7) 0.0493(5)
H3 H 0.5448 0.1014 0.0448
C4 C 0.5707(5) 0.1369(4) 0.0480(5)
H4 H 0.5825 0.1417 0.0435
C5 C 0.5625(6) 0.1480(8) 0.0625(6)
C6 C 0.5692(6) 0.1664(8) 0.0692(6)
C7 C 0.5744(6) 0.1821(8) 0.0744(6)
C8 C 0.5833(6) 0.1985(8) 0.0833(6)
C9 C 0.6002(4) 0.2037(5) 0.0742(5)
H9 H 0.6065 0.1966 0.0644
C10 C 0.6063(5) 0.2210(4) 0.0818(5)
H10 H 0.6175 0.2267 0.0768
C11 C 0.5965(6) 0.2300(8) 0.0965(6)
C12 C 0.6033(5) 0.2482(9) 0.1033(5)
C13 C 0.6114(6) 0.2614(8) 0.1114(6)
C14 C 0.6171(6) 0.2804(8) 0.1171(6)
C15 C 0.6340(5) 0.2897(5) 0.1126(5)
H15 H 0.6423 0.2830 0.1042
C16 C 0.6407(5) 0.3074(5) 0.1186(5)
H16 H 0.6512 0.3126 0.1118
C17 C 0.6336(6) 0.3183(8) 0.1336(6)
C18 C 0.6403(7) 0.3366(8) 0.1403(7)
C19 C 0.6299(7) 0.3451(6) 0.1549(6)
H19 H 0.6174 0.3414 0.1586
C1 C 0.5779(4) 0.4746(5) 0.3900(4)
C2 C 0.5648(4) 0.4611(5) 0.3798(5)
C4 C 0.5707(5) 0.4520(5) 0.3631(4)
H4 H 0.5825 0.4565 0.3583
C9 C 0.6002(4) 0.4258(5) 0.2963(5)
H9 H 0.6065 0.4356 0.3034
C10 C 0.6063(5) 0.4182(5) 0.2790(4)
H10 H 0.6175 0.4232 0.2733
C15 C 0.6340(5) 0.3874(5) 0.2103(5)
H15 H 0.6423 0.3958 0.2170
C16 C 0.6407(5) 0.3814(5) 0.1926(5)
H16 H 0.6512 0.3882 0.1874
O1 O 0.8818(3) 0.4069(4) 0.0174(3)
O2 O 0.9051(4) 0.4305(3) 0.0174(3)
C1 C 0.8900(4) 0.4221(4) 0.0254(5)
C2 C 0.8798(5) 0.4352(4) 0.0389(5)
C4 C 0.8631(4) 0.4293(5) 0.0480(5)
H4 H 0.8583 0.4175 0.0435
C9 C 0.7963(5) 0.3998(4) 0.0742(5)
H9 H 0.8034 0.3935 0.0644
C10 C 0.7790(4) 0.3937(5) 0.0818(5)
H10 H 0.7733 0.3825 0.0768
C15 C 0.7103(5) 0.3660(5) 0.1126(5)
H15 H 0.7170 0.3577 0.1042
C16 C 0.6926(5) 0.3593(5) 0.1186(5)
H16 H 0.6874 0.3488 0.1118
O1 O 0.5174(3) 0.1182(3) 0.0931(4)
O2 O 0.5174(3) 0.0949(4) 0.0695(3)
C1 C 0.5254(5) 0.1100(4) 0.0779(4)
C2 C 0.5389(5) 0.1202(5) 0.0648(4)
C4 C 0.5480(5) 0.1369(4) 0.0707(5)
H4 H 0.5435 0.1417 0.0825
C9 C 0.5742(5) 0.2037(5) 0.1002(4)
H9 H 0.5644 0.1966 0.1065
C10 C 0.5818(5) 0.2210(4) 0.1063(5)
H10 H 0.5768 0.2267 0.1175
C15 C 0.6126(5) 0.2897(5) 0.1340(5)
H15 H 0.6042 0.2830 0.1423
C16 C 0.6186(5) 0.3074(5) 0.1407(5)
H16 H 0.6118 0.3126 0.1512
Cu1 Cu 0.60340(12) 0.10340(12) 0.0000
Cu1 Cu 0.89660(12) 0.39660(12) 0.0000
Cu2 Cu 0.58212(12) 0.08212(12) 0.0000
Cu2 Cu 0.91788(12) 0.41788(12) 0.0000
C1 C 0.4746(5) 0.4221(4) 0.6100(4)
C2 C 0.4611(5) 0.4352(4) 0.6202(5)
C3 C 0.4507(5) 0.4507(5) 0.6134(7)
H3 H 0.4552 0.4552 0.6014
C4 C 0.4520(5) 0.4293(5) 0.6369(4)
H4 H 0.4565 0.4175 0.6417
C5 C 0.4375(6) 0.4375(6) 0.6480(8)
C6 C 0.4308(6) 0.4308(6) 0.6664(8)
C7 C 0.4256(6) 0.4256(6) 0.6821(8)
C8 C 0.4167(6) 0.4167(6) 0.6985(8)
C9 C 0.4258(5) 0.3998(4) 0.7037(5)
H9 H 0.4356 0.3935 0.6966
C10 C 0.4182(5) 0.3937(5) 0.7210(4)
H10 H 0.4232 0.3825 0.7267
C11 C 0.4035(6) 0.4035(6) 0.7300(8)
C12 C 0.3967(5) 0.3967(5) 0.7482(9)
C13 C 0.3886(6) 0.3886(6) 0.7614(8)
C14 C 0.3829(6) 0.3829(6) 0.7804(8)
C15 C 0.3874(5) 0.3660(5) 0.7897(5)
H15 H 0.3958 0.3577 0.7830
C16 C 0.3814(5) 0.3593(5) 0.8074(5)
H16 H 0.3882 0.3488 0.8126
C17 C 0.3664(6) 0.3664(6) 0.8183(8)
C18 C 0.3597(7) 0.3597(7) 0.8366(8)
C19 C 0.3451(6) 0.3701(7) 0.8451(6)
H19 H 0.3414 0.3826 0.8414
O1 O 0.1182(3) 0.4826(3) 0.9069(4)
O2 O 0.0949(4) 0.4826(3) 0.9305(3)
C1 C 0.1100(4) 0.4746(5) 0.9221(4)
C2 C 0.1202(5) 0.4611(5) 0.9352(4)
C3 C 0.1134(7) 0.4507(5) 0.9507(5)
H3 H 0.1014 0.4552 0.9552
C4 C 0.1369(4) 0.4520(5) 0.9293(5)
H4 H 0.1417 0.4565 0.9175
C5 C 0.1480(8) 0.4375(6) 0.9375(6)
C6 C 0.1664(8) 0.4308(6) 0.9308(6)
C7 C 0.1821(8) 0.4256(6) 0.9256(6)
C8 C 0.1985(8) 0.4167(6) 0.9167(6)
C9 C 0.2037(5) 0.4258(5) 0.8998(4)
H9 H 0.1966 0.4356 0.8935
C10 C 0.2210(4) 0.4182(5) 0.8937(5)
H10 H 0.2267 0.4232 0.8825
C11 C 0.2300(8) 0.4035(6) 0.9035(6)
C12 C 0.2482(9) 0.3967(5) 0.8967(5)
C13 C 0.2614(8) 0.3886(6) 0.8886(6)
C14 C 0.2804(8) 0.3829(6) 0.8829(6)
C15 C 0.2897(5) 0.3874(5) 0.8660(5)
H15 H 0.2830 0.3958 0.8577
C16 C 0.3074(5) 0.3814(5) 0.8593(5)
H16 H 0.3126 0.3882 0.8488
C17 C 0.3183(8) 0.3664(6) 0.8664(6)
C18 C 0.3366(8) 0.3597(7) 0.8597(7)
C19 C 0.3451(6) 0.3451(6) 0.8701(7)
H19 H 0.3414 0.3414 0.8826
O1 O 0.4069(4) 0.1182(3) 0.9826(3)
O2 O 0.4305(3) 0.0949(4) 0.9826(3)
C1 C 0.4221(4) 0.1100(4) 0.9746(5)
C2 C 0.4352(4) 0.1202(5) 0.9611(5)
C3 C 0.4507(5) 0.1134(7) 0.9507(5)
H3 H 0.4552 0.1014 0.9552
C4 C 0.4293(5) 0.1369(4) 0.9520(5)
H4 H 0.4175 0.1417 0.9565
C5 C 0.4375(6) 0.1480(8) 0.9375(6)
C6 C 0.4308(6) 0.1664(8) 0.9308(6)
C7 C 0.4256(6) 0.1821(8) 0.9256(6)
C8 C 0.4167(6) 0.1985(8) 0.9167(6)
C9 C 0.3998(4) 0.2037(5) 0.9258(5)
H9 H 0.3935 0.1966 0.9356
C10 C 0.3937(5) 0.2210(4) 0.9182(5)
H10 H 0.3825 0.2267 0.9232
C11 C 0.4035(6) 0.2300(8) 0.9035(6)
C12 C 0.3967(5) 0.2482(9) 0.8967(5)
C13 C 0.3886(6) 0.2614(8) 0.8886(6)
C14 C 0.3829(6) 0.2804(8) 0.8829(6)
C15 C 0.3660(5) 0.2897(5) 0.8874(5)
H15 H 0.3577 0.2830 0.8958
C16 C 0.3593(5) 0.3074(5) 0.8814(5)
H16 H 0.3488 0.3126 0.8882
C17 C 0.3664(6) 0.3183(8) 0.8664(6)
C18 C 0.3597(7) 0.3366(8) 0.8597(7)
C19 C 0.3701(7) 0.3451(6) 0.8451(6)
H19 H 0.3826 0.3414 0.8414
C1 C 0.4221(4) 0.4746(5) 0.6100(4)
C2 C 0.4352(4) 0.4611(5) 0.6202(5)
C4 C 0.4293(5) 0.4520(5) 0.6369(4)
H4 H 0.4175 0.4565 0.6417
C9 C 0.3998(4) 0.4258(5) 0.7037(5)
H9 H 0.3935 0.4356 0.6966
C10 C 0.3937(5) 0.4182(5) 0.7210(4)
H10 H 0.3825 0.4232 0.7267
C15 C 0.3660(5) 0.3874(5) 0.7897(5)
H15 H 0.3577 0.3958 0.7830
C16 C 0.3593(5) 0.3814(5) 0.8074(5)
H16 H 0.3488 0.3882 0.8126
O1 O 0.1182(3) 0.4069(4) 0.9826(3)
O2 O 0.0949(4) 0.4305(3) 0.9826(3)
C1 C 0.1100(4) 0.4221(4) 0.9746(5)
C2 C 0.1202(5) 0.4352(4) 0.9611(5)
C4 C 0.1369(4) 0.4293(5) 0.9520(5)
H4 H 0.1417 0.4175 0.9565
C9 C 0.2037(5) 0.3998(4) 0.9258(5)
H9 H 0.1966 0.3935 0.9356
C10 C 0.2210(4) 0.3937(5) 0.9182(5)
H10 H 0.2267 0.3825 0.9232
C15 C 0.2897(5) 0.3660(5) 0.8874(5)
H15 H 0.2830 0.3577 0.8958
C16 C 0.3074(5) 0.3593(5) 0.8814(5)
H16 H 0.3126 0.3488 0.8882
O1 O 0.4826(3) 0.1182(3) 0.9069(4)
O2 O 0.4826(3) 0.0949(4) 0.9305(3)
C1 C 0.4746(5) 0.1100(4) 0.9221(4)
C2 C 0.4611(5) 0.1202(5) 0.9352(4)
C4 C 0.4520(5) 0.1369(4) 0.9293(5)
H4 H 0.4565 0.1417 0.9175
C9 C 0.4258(5) 0.2037(5) 0.8998(4)
H9 H 0.4356 0.1966 0.8935
C10 C 0.4182(5) 0.2210(4) 0.8937(5)
H10 H 0.4232 0.2267 0.8825
C15 C 0.3874(5) 0.2897(5) 0.8660(5)
H15 H 0.3958 0.2830 0.8577
C16 C 0.3814(5) 0.3074(5) 0.8593(5)
H16 H 0.3882 0.3126 0.8488
Cu1 Cu 0.39660(12) 0.10340(12) 1.0000
Cu1 Cu 0.10340(12) 0.39660(12) 1.0000
Cu2 Cu 0.41788(12) 0.08212(12) 1.0000
Cu2 Cu 0.08212(12) 0.41788(12) 1.0000
O1 O 0.3818(3) 0.0931(4) 0.0174(3)
O2 O 0.4051(4) 0.0695(3) 0.0174(3)
C1 C 0.3900(4) 0.0779(4) 0.0254(5)
C2 C 0.3798(5) 0.0648(4) 0.0389(5)
C3 C 0.3866(7) 0.0493(5) 0.0493(5)
H3 H 0.3986 0.0448 0.0448
C4 C 0.3631(4) 0.0707(5) 0.0480(5)
H4 H 0.3583 0.0825 0.0435
C5 C 0.3520(8) 0.0625(6) 0.0625(6)
C6 C 0.3336(8) 0.0692(6) 0.0692(6)
C7 C 0.3179(8) 0.0744(6) 0.0744(6)
C8 C 0.3015(8) 0.0833(6) 0.0833(6)
C9 C 0.2963(5) 0.1002(4) 0.0742(5)
H9 H 0.3034 0.1065 0.0644
C10 C 0.2790(4) 0.1063(5) 0.0818(5)
H10 H 0.2733 0.1175 0.0768
C11 C 0.2700(8) 0.0965(6) 0.0965(6)
C12 C 0.2518(9) 0.1033(5) 0.1033(5)
C13 C 0.2386(8) 0.1114(6) 0.1114(6)
C14 C 0.2196(8) 0.1171(6) 0.1171(6)
C15 C 0.2103(5) 0.1340(5) 0.1126(5)
H15 H 0.2170 0.1423 0.1042
C16 C 0.1926(5) 0.1407(5) 0.1186(5)
H16 H 0.1874 0.1512 0.1118
C17 C 0.1817(8) 0.1336(6) 0.1336(6)
C18 C 0.1634(8) 0.1403(7) 0.1403(7)
C19 C 0.1549(6) 0.1299(7) 0.1549(6)
H19 H 0.1586 0.1174 0.1586
O1 O 0.0931(4) 0.0174(3) 0.3818(3)
O2 O 0.0695(3) 0.0174(3) 0.4051(4)
C1 C 0.0779(4) 0.0254(5) 0.3900(4)
C2 C 0.0648(4) 0.0389(5) 0.3798(5)
C3 C 0.0493(5) 0.0493(5) 0.3866(7)
H3 H 0.0448 0.0448 0.3986
C4 C 0.0707(5) 0.0480(5) 0.3631(4)
H4 H 0.0825 0.0435 0.3583
C5 C 0.0625(6) 0.0625(6) 0.3520(8)
C6 C 0.0692(6) 0.0692(6) 0.3336(8)
C7 C 0.0744(6) 0.0744(6) 0.3179(8)
C8 C 0.0833(6) 0.0833(6) 0.3015(8)
C9 C 0.1002(4) 0.0742(5) 0.2963(5)
H9 H 0.1065 0.0644 0.3034
C10 C 0.1063(5) 0.0818(5) 0.2790(4)
H10 H 0.1175 0.0768 0.2733
C11 C 0.0965(6) 0.0965(6) 0.2700(8)
C12 C 0.1033(5) 0.1033(5) 0.2518(9)
C13 C 0.1114(6) 0.1114(6) 0.2386(8)
C14 C 0.1171(6) 0.1171(6) 0.2196(8)
C15 C 0.1340(5) 0.1126(5) 0.2103(5)
H15 H 0.1423 0.1042 0.2170
C16 C 0.1407(5) 0.1186(5) 0.1926(5)
H16 H 0.1512 0.1118 0.1874
C17 C 0.1336(6) 0.1336(6) 0.1817(8)
C18 C 0.1403(7) 0.1403(7) 0.1634(8)
C19 C 0.1299(7) 0.1549(6) 0.1549(6)
H19 H 0.1174 0.1586 0.1586
O1 O 0.0174(3) 0.3818(3) 0.0931(4)
O2 O 0.0174(3) 0.4051(4) 0.0695(3)
C1 C 0.0254(5) 0.3900(4) 0.0779(4)
C2 C 0.0389(5) 0.3798(5) 0.0648(4)
C3 C 0.0493(5) 0.3866(7) 0.0493(5)
H3 H 0.0448 0.3986 0.0448
C4 C 0.0480(5) 0.3631(4) 0.0707(5)
H4 H 0.0435 0.3583 0.0825
C5 C 0.0625(6) 0.3520(8) 0.0625(6)
C6 C 0.0692(6) 0.3336(8) 0.0692(6)
C7 C 0.0744(6) 0.3179(8) 0.0744(6)
C8 C 0.0833(6) 0.3015(8) 0.0833(6)
C9 C 0.0742(5) 0.2963(5) 0.1002(4)
H9 H 0.0644 0.3034 0.1065
C10 C 0.0818(5) 0.2790(4) 0.1063(5)
H10 H 0.0768 0.2733 0.1175
C11 C 0.0965(6) 0.2700(8) 0.0965(6)
C12 C 0.1033(5) 0.2518(9) 0.1033(5)
C13 C 0.1114(6) 0.2386(8) 0.1114(6)
C14 C 0.1171(6) 0.2196(8) 0.1171(6)
C15 C 0.1126(5) 0.2103(5) 0.1340(5)
H15 H 0.1042 0.2170 0.1423
C16 C 0.1186(5) 0.1926(5) 0.1407(5)
H16 H 0.1118 0.1874 0.1512
C17 C 0.1336(6) 0.1817(8) 0.1336(6)
C18 C 0.1403(7) 0.1634(8) 0.1403(7)
C19 C 0.1549(6) 0.1549(6) 0.1299(7)
H19 H 0.1586 0.1586 0.1174
O1 O 0.3818(3) 0.0174(3) 0.0931(4)
O2 O 0.4051(4) 0.0174(3) 0.0695(3)
C1 C 0.3900(4) 0.0254(5) 0.0779(4)
C2 C 0.3798(5) 0.0389(5) 0.0648(4)
C4 C 0.3631(4) 0.0480(5) 0.0707(5)
H4 H 0.3583 0.0435 0.0825
C9 C 0.2963(5) 0.0742(5) 0.1002(4)
H9 H 0.3034 0.0644 0.1065
C10 C 0.2790(4) 0.0818(5) 0.1063(5)
H10 H 0.2733 0.0768 0.1175
C15 C 0.2103(5) 0.1126(5) 0.1340(5)
H15 H 0.2170 0.1042 0.1423
C16 C 0.1926(5) 0.1186(5) 0.1407(5)
H16 H 0.1874 0.1118 0.1512
O1 O 0.0174(3) 0.0931(4) 0.3818(3)
O2 O 0.0174(3) 0.0695(3) 0.4051(4)
C1 C 0.0254(5) 0.0779(4) 0.3900(4)
C2 C 0.0389(5) 0.0648(4) 0.3798(5)
C4 C 0.0480(5) 0.0707(5) 0.3631(4)
H4 H 0.0435 0.0825 0.3583
C9 C 0.0742(5) 0.1002(4) 0.2963(5)
H9 H 0.0644 0.1065 0.3034
C10 C 0.0818(5) 0.1063(5) 0.2790(4)
H10 H 0.0768 0.1175 0.2733
C15 C 0.1126(5) 0.1340(5) 0.2103(5)
H15 H 0.1042 0.1423 0.2170
C16 C 0.1186(5) 0.1407(5) 0.1926(5)
H16 H 0.1118 0.1512 0.1874
O1 O 0.0931(4) 0.3818(3) 0.0174(3)
O2 O 0.0695(3) 0.4051(4) 0.0174(3)
C1 C 0.0779(4) 0.3900(4) 0.0254(5)
C2 C 0.0648(4) 0.3798(5) 0.0389(5)
C4 C 0.0707(5) 0.3631(4) 0.0480(5)
H4 H 0.0825 0.3583 0.0435
C9 C 0.1002(4) 0.2963(5) 0.0742(5)
H9 H 0.1065 0.3034 0.0644
C10 C 0.1063(5) 0.2790(4) 0.0818(5)
H10 H 0.1175 0.2733 0.0768
C15 C 0.1340(5) 0.2103(5) 0.1126(5)
H15 H 0.1423 0.2170 0.1042
C16 C 0.1407(5) 0.1926(5) 0.1186(5)
H16 H 0.1512 0.1874 0.1118
O1 O 0.4069(4) 0.1182(3) -0.0174(3)
O1 O 0.3818(3) -0.0174(3) 0.0931(4)
O1 O 0.3818(3) 0.0931(4) -0.0174(3)
O1 O 0.4069(4) -0.0174(3) 0.1182(3)
O2 O 0.4305(3) 0.0949(4) -0.0174(3)
O2 O 0.4051(4) -0.0174(3) 0.0695(3)
O2 O 0.4051(4) 0.0695(3) -0.0174(3)
O2 O 0.4305(3) -0.0174(3) 0.0949(4)
O1 O 0.6182(3) 0.9069(4) 0.0174(3)
O2 O 0.5949(4) 0.9305(3) 0.0174(3)
C1 C 0.6100(4) 0.9221(4) 0.0254(5)
C2 C 0.6202(5) 0.9352(4) 0.0389(5)
C3 C 0.6134(7) 0.9507(5) 0.0493(5)
H3 H 0.6014 0.9552 0.0448
C4 C 0.6369(4) 0.9293(5) 0.0480(5)
H4 H 0.6417 0.9175 0.0435
C5 C 0.6480(8) 0.9375(6) 0.0625(6)
C6 C 0.6664(8) 0.9308(6) 0.0692(6)
C7 C 0.6821(8) 0.9256(6) 0.0744(6)
C8 C 0.6985(8) 0.9167(6) 0.0833(6)
C9 C 0.7037(5) 0.8998(4) 0.0742(5)
H9 H 0.6966 0.8935 0.0644
C10 C 0.7210(4) 0.8937(5) 0.0818(5)
H10 H 0.7267 0.8825 0.0768
C11 C 0.7300(8) 0.9035(6) 0.0965(6)
C12 C 0.7482(9) 0.8967(5) 0.1033(5)
C13 C 0.7614(8) 0.8886(6) 0.1114(6)
C14 C 0.7804(8) 0.8829(6) 0.1171(6)
C15 C 0.7897(5) 0.8660(5) 0.1126(5)
H15 H 0.7830 0.8577 0.1042
C16 C 0.8074(5) 0.8593(5) 0.1186(5)
H16 H 0.8126 0.8488 0.1118
C17 C 0.8183(8) 0.8664(6) 0.1336(6)
C18 C 0.8366(8) 0.8597(7) 0.1403(7)
C19 C 0.8451(6) 0.8701(7) 0.1549(6)
H19 H 0.8414 0.8826 0.1586
O1 O 0.9069(4) 0.9826(3) 0.3818(3)
O2 O 0.9305(3) 0.9826(3) 0.4051(4)
C1 C 0.9221(4) 0.9746(5) 0.3900(4)
C2 C 0.9352(4) 0.9611(5) 0.3798(5)
C3 C 0.9507(5) 0.9507(5) 0.3866(7)
H3 H 0.9552 0.9552 0.3986
C4 C 0.9293(5) 0.9520(5) 0.3631(4)
H4 H 0.9175 0.9565 0.3583
C5 C 0.9375(6) 0.9375(6) 0.3520(8)
C6 C 0.9308(6) 0.9308(6) 0.3336(8)
C7 C 0.9256(6) 0.9256(6) 0.3179(8)
C8 C 0.9167(6) 0.9167(6) 0.3015(8)
C9 C 0.8998(4) 0.9258(5) 0.2963(5)
H9 H 0.8935 0.9356 0.3034
C10 C 0.8937(5) 0.9182(5) 0.2790(4)
H10 H 0.8825 0.9232 0.2733
C11 C 0.9035(6) 0.9035(6) 0.2700(8)
C12 C 0.8967(5) 0.8967(5) 0.2518(9)
C13 C 0.8886(6) 0.8886(6) 0.2386(8)
C14 C 0.8829(6) 0.8829(6) 0.2196(8)
C15 C 0.8660(5) 0.8874(5) 0.2103(5)
H15 H 0.8577 0.8958 0.2170
C16 C 0.8593(5) 0.8814(5) 0.1926(5)
H16 H 0.8488 0.8882 0.1874
C17 C 0.8664(6) 0.8664(6) 0.1817(8)
C18 C 0.8597(7) 0.8597(7) 0.1634(8)
C19 C 0.8701(7) 0.8451(6) 0.1549(6)
H19 H 0.8826 0.8414 0.1586
O1 O 0.9826(3) 0.6182(3) 0.0931(4)
O2 O 0.9826(3) 0.5949(4) 0.0695(3)
C1 C 0.9746(5) 0.6100(4) 0.0779(4)
C2 C 0.9611(5) 0.6202(5) 0.0648(4)
C3 C 0.9507(5) 0.6134(7) 0.0493(5)
H3 H 0.9552 0.6014 0.0448
C4 C 0.9520(5) 0.6369(4) 0.0707(5)
H4 H 0.9565 0.6417 0.0825
C5 C 0.9375(6) 0.6480(8) 0.0625(6)
C6 C 0.9308(6) 0.6664(8) 0.0692(6)
C7 C 0.9256(6) 0.6821(8) 0.0744(6)
C8 C 0.9167(6) 0.6985(8) 0.0833(6)
C9 C 0.9258(5) 0.7037(5) 0.1002(4)
H9 H 0.9356 0.6966 0.1065
C10 C 0.9182(5) 0.7210(4) 0.1063(5)
H10 H 0.9232 0.7267 0.1175
C11 C 0.9035(6) 0.7300(8) 0.0965(6)
C12 C 0.8967(5) 0.7482(9) 0.1033(5)
C13 C 0.8886(6) 0.7614(8) 0.1114(6)
C14 C 0.8829(6) 0.7804(8) 0.1171(6)
C15 C 0.8874(5) 0.7897(5) 0.1340(5)
H15 H 0.8958 0.7830 0.1423
C16 C 0.8814(5) 0.8074(5) 0.1407(5)
H16 H 0.8882 0.8126 0.1512
C17 C 0.8664(6) 0.8183(8) 0.1336(6)
C18 C 0.8597(7) 0.8366(8) 0.1403(7)
C19 C 0.8451(6) 0.8451(6) 0.1299(7)
H19 H 0.8414 0.8414 0.1174
O1 O 0.6182(3) 0.9826(3) 0.0931(4)
O2 O 0.5949(4) 0.9826(3) 0.0695(3)
C1 C 0.6100(4) 0.9746(5) 0.0779(4)
C2 C 0.6202(5) 0.9611(5) 0.0648(4)
C4 C 0.6369(4) 0.9520(5) 0.0707(5)
H4 H 0.6417 0.9565 0.0825
C9 C 0.7037(5) 0.9258(5) 0.1002(4)
H9 H 0.6966 0.9356 0.1065
C10 C 0.7210(4) 0.9182(5) 0.1063(5)
H10 H 0.7267 0.9232 0.1175
C15 C 0.7897(5) 0.8874(5) 0.1340(5)
H15 H 0.7830 0.8958 0.1423
C16 C 0.8074(5) 0.8814(5) 0.1407(5)
H16 H 0.8126 0.8882 0.1512
O1 O 0.9826(3) 0.9069(4) 0.3818(3)
O2 O 0.9826(3) 0.9305(3) 0.4051(4)
C1 C 0.9746(5) 0.9221(4) 0.3900(4)
C2 C 0.9611(5) 0.9352(4) 0.3798(5)
C4 C 0.9520(5) 0.9293(5) 0.3631(4)
H4 H 0.9565 0.9175 0.3583
C9 C 0.9258(5) 0.8998(4) 0.2963(5)
H9 H 0.9356 0.8935 0.3034
C10 C 0.9182(5) 0.8937(5) 0.2790(4)
H10 H 0.9232 0.8825 0.2733
C15 C 0.8874(5) 0.8660(5) 0.2103(5)
H15 H 0.8958 0.8577 0.2170
C16 C 0.8814(5) 0.8593(5) 0.1926(5)
H16 H 0.8882 0.8488 0.1874
O1 O 0.9069(4) 0.6182(3) 0.0174(3)
O2 O 0.9305(3) 0.5949(4) 0.0174(3)
C1 C 0.9221(4) 0.6100(4) 0.0254(5)
C2 C 0.9352(4) 0.6202(5) 0.0389(5)
C4 C 0.9293(5) 0.6369(4) 0.0480(5)
H4 H 0.9175 0.6417 0.0435
C9 C 0.8998(4) 0.7037(5) 0.0742(5)
H9 H 0.8935 0.6966 0.0644
C10 C 0.8937(5) 0.7210(4) 0.0818(5)
H10 H 0.8825 0.7267 0.0768
C15 C 0.8660(5) 0.7897(5) 0.1126(5)
H15 H 0.8577 0.7830 0.1042
C16 C 0.8593(5) 0.8074(5) 0.1186(5)
H16 H 0.8488 0.8126 0.1118
O1 O 0.5931(4) 0.8818(3) -0.0174(3)
O1 O 0.6182(3) 1.0174(3) 0.0931(4)
O1 O 0.6182(3) 0.9069(4) -0.0174(3)
O1 O 0.5931(4) 1.0174(3) 0.1182(3)
O2 O 0.5695(3) 0.9051(4) -0.0174(3)
O2 O 0.5949(4) 1.0174(3) 0.0695(3)
O2 O 0.5949(4) 0.9305(3) -0.0174(3)
O2 O 0.5695(3) 1.0174(3) 0.0949(4)
O1 O 0.6182(3) 0.0931(4) 0.9826(3)
O2 O 0.5949(4) 0.0695(3) 0.9826(3)
C1 C 0.6100(4) 0.0779(4) 0.9746(5)
C2 C 0.6202(5) 0.0648(4) 0.9611(5)
C3 C 0.6134(7) 0.0493(5) 0.9507(5)
H3 H 0.6014 0.0448 0.9552
C4 C 0.6369(4) 0.0707(5) 0.9520(5)
H4 H 0.6417 0.0825 0.9565
C5 C 0.6480(8) 0.0625(6) 0.9375(6)
C6 C 0.6664(8) 0.0692(6) 0.9308(6)
C7 C 0.6821(8) 0.0744(6) 0.9256(6)
C8 C 0.6985(8) 0.0833(6) 0.9167(6)
C9 C 0.7037(5) 0.1002(4) 0.9258(5)
H9 H 0.6966 0.1065 0.9356
C10 C 0.7210(4) 0.1063(5) 0.9182(5)
H10 H 0.7267 0.1175 0.9232
C11 C 0.7300(8) 0.0965(6) 0.9035(6)
C12 C 0.7482(9) 0.1033(5) 0.8967(5)
C13 C 0.7614(8) 0.1114(6) 0.8886(6)
C14 C 0.7804(8) 0.1171(6) 0.8829(6)
C15 C 0.7897(5) 0.1340(5) 0.8874(5)
H15 H 0.7830 0.1423 0.8958
C16 C 0.8074(5) 0.1407(5) 0.8814(5)
H16 H 0.8126 0.1512 0.8882
C17 C 0.8183(8) 0.1336(6) 0.8664(6)
C18 C 0.8366(8) 0.1403(7) 0.8597(7)
C19 C 0.8451(6) 0.1299(7) 0.8451(6)
H19 H 0.8414 0.1174 0.8414
O1 O 0.9069(4) 0.0174(3) 0.6182(3)
O2 O 0.9305(3) 0.0174(3) 0.5949(4)
C1 C 0.9221(4) 0.0254(5) 0.6100(4)
C2 C 0.9352(4) 0.0389(5) 0.6202(5)
C3 C 0.9507(5) 0.0493(5) 0.6134(7)
H3 H 0.9552 0.0448 0.6014
C4 C 0.9293(5) 0.0480(5) 0.6369(4)
H4 H 0.9175 0.0435 0.6417
C5 C 0.9375(6) 0.0625(6) 0.6480(8)
C6 C 0.9308(6) 0.0692(6) 0.6664(8)
C7 C 0.9256(6) 0.0744(6) 0.6821(8)
C8 C 0.9167(6) 0.0833(6) 0.6985(8)
C9 C 0.8998(4) 0.0742(5) 0.7037(5)
H9 H 0.8935 0.0644 0.6966
C10 C 0.8937(5) 0.0818(5) 0.7210(4)
H10 H 0.8825 0.0768 0.7267
C11 C 0.9035(6) 0.0965(6) 0.7300(8)
C12 C 0.8967(5) 0.1033(5) 0.7482(9)
C13 C 0.8886(6) 0.1114(6) 0.7614(8)
C14 C 0.8829(6) 0.1171(6) 0.7804(8)
C15 C 0.8660(5) 0.1126(5) 0.7897(5)
H15 H 0.8577 0.1042 0.7830
C16 C 0.8593(5) 0.1186(5) 0.8074(5)
H16 H 0.8488 0.1118 0.8126
C17 C 0.8664(6) 0.1336(6) 0.8183(8)
C18 C 0.8597(7) 0.1403(7) 0.8366(8)
C19 C 0.8701(7) 0.1549(6) 0.8451(6)
H19 H 0.8826 0.1586 0.8414
O1 O 0.9826(3) 0.3818(3) 0.9069(4)
O2 O 0.9826(3) 0.4051(4) 0.9305(3)
C1 C 0.9746(5) 0.3900(4) 0.9221(4)
C2 C 0.9611(5) 0.3798(5) 0.9352(4)
C3 C 0.9507(5) 0.3866(7) 0.9507(5)
H3 H 0.9552 0.3986 0.9552
C4 C 0.9520(5) 0.3631(4) 0.9293(5)
H4 H 0.9565 0.3583 0.9175
C5 C 0.9375(6) 0.3520(8) 0.9375(6)
C6 C 0.9308(6) 0.3336(8) 0.9308(6)
C7 C 0.9256(6) 0.3179(8) 0.9256(6)
C8 C 0.9167(6) 0.3015(8) 0.9167(6)
C9 C 0.9258(5) 0.2963(5) 0.8998(4)
H9 H 0.9356 0.3034 0.8935
C10 C 0.9182(5) 0.2790(4) 0.8937(5)
H10 H 0.9232 0.2733 0.8825
C11 C 0.9035(6) 0.2700(8) 0.9035(6)
C12 C 0.8967(5) 0.2518(9) 0.8967(5)
C13 C 0.8886(6) 0.2386(8) 0.8886(6)
C14 C 0.8829(6) 0.2196(8) 0.8829(6)
C15 C 0.8874(5) 0.2103(5) 0.8660(5)
H15 H 0.8958 0.2170 0.8577
C16 C 0.8814(5) 0.1926(5) 0.8593(5)
H16 H 0.8882 0.1874 0.8488
C17 C 0.8664(6) 0.1817(8) 0.8664(6)
C18 C 0.8597(7) 0.1634(8) 0.8597(7)
C19 C 0.8451(6) 0.1549(6) 0.8701(7)
H19 H 0.8414 0.1586 0.8826
O1 O 0.6182(3) 0.0174(3) 0.9069(4)
O2 O 0.5949(4) 0.0174(3) 0.9305(3)
C1 C 0.6100(4) 0.0254(5) 0.9221(4)
C2 C 0.6202(5) 0.0389(5) 0.9352(4)
C4 C 0.6369(4) 0.0480(5) 0.9293(5)
H4 H 0.6417 0.0435 0.9175
C9 C 0.7037(5) 0.0742(5) 0.8998(4)
H9 H 0.6966 0.0644 0.8935
C10 C 0.7210(4) 0.0818(5) 0.8937(5)
H10 H 0.7267 0.0768 0.8825
C15 C 0.7897(5) 0.1126(5) 0.8660(5)
H15 H 0.7830 0.1042 0.8577
C16 C 0.8074(5) 0.1186(5) 0.8593(5)
H16 H 0.8126 0.1118 0.8488
O1 O 0.9826(3) 0.0931(4) 0.6182(3)
O2 O 0.9826(3) 0.0695(3) 0.5949(4)
C1 C 0.9746(5) 0.0779(4) 0.6100(4)
C2 C 0.9611(5) 0.0648(4) 0.6202(5)
C4 C 0.9520(5) 0.0707(5) 0.6369(4)
H4 H 0.9565 0.0825 0.6417
C9 C 0.9258(5) 0.1002(4) 0.7037(5)
H9 H 0.9356 0.1065 0.6966
C10 C 0.9182(5) 0.1063(5) 0.7210(4)
H10 H 0.9232 0.1175 0.7267
C15 C 0.8874(5) 0.1340(5) 0.7897(5)
H15 H 0.8958 0.1423 0.7830
C16 C 0.8814(5) 0.1407(5) 0.8074(5)
H16 H 0.8882 0.1512 0.8126
O1 O 0.9069(4) 0.3818(3) 0.9826(3)
O2 O 0.9305(3) 0.4051(4) 0.9826(3)
C1 C 0.9221(4) 0.3900(4) 0.9746(5)
C2 C 0.9352(4) 0.3798(5) 0.9611(5)
C4 C 0.9293(5) 0.3631(4) 0.9520(5)
H4 H 0.9175 0.3583 0.9565
C9 C 0.8998(4) 0.2963(5) 0.9258(5)
H9 H 0.8935 0.3034 0.9356
C10 C 0.8937(5) 0.2790(4) 0.9182(5)
H10 H 0.8825 0.2733 0.9232
C15 C 0.8660(5) 0.2103(5) 0.8874(5)
H15 H 0.8577 0.2170 0.8958
C16 C 0.8593(5) 0.1926(5) 0.8814(5)
H16 H 0.8488 0.1874 0.8882
O1 O 0.5931(4) 0.1182(3) 1.0174(3)
O1 O 0.6182(3) -0.0174(3) 0.9069(4)
O1 O 0.6182(3) 0.0931(4) 1.0174(3)
O1 O 0.5931(4) -0.0174(3) 0.8818(3)
O2 O 0.5695(3) 0.0949(4) 1.0174(3)
O2 O 0.5949(4) -0.0174(3) 0.9305(3)
O2 O 0.5949(4) 0.0695(3) 1.0174(3)
O2 O 0.5695(3) -0.0174(3) 0.9051(4)
O1 O 0.3818(3) 0.9069(4) 0.9826(3)
O2 O 0.4051(4) 0.9305(3) 0.9826(3)
C1 C 0.3900(4) 0.9221(4) 0.9746(5)
C2 C 0.3798(5) 0.9352(4) 0.9611(5)
C3 C 0.3866(7) 0.9507(5) 0.9507(5)
H3 H 0.3986 0.9552 0.9552
C4 C 0.3631(4) 0.9293(5) 0.9520(5)
H4 H 0.3583 0.9175 0.9565
C5 C 0.3520(8) 0.9375(6) 0.9375(6)
C6 C 0.3336(8) 0.9308(6) 0.9308(6)
C7 C 0.3179(8) 0.9256(6) 0.9256(6)
C8 C 0.3015(8) 0.9167(6) 0.9167(6)
C9 C 0.2963(5) 0.8998(4) 0.9258(5)
H9 H 0.3034 0.8935 0.9356
C10 C 0.2790(4) 0.8937(5) 0.9182(5)
H10 H 0.2733 0.8825 0.9232
C11 C 0.2700(8) 0.9035(6) 0.9035(6)
C12 C 0.2518(9) 0.8967(5) 0.8967(5)
C13 C 0.2386(8) 0.8886(6) 0.8886(6)
C14 C 0.2196(8) 0.8829(6) 0.8829(6)
C15 C 0.2103(5) 0.8660(5) 0.8874(5)
H15 H 0.2170 0.8577 0.8958
C16 C 0.1926(5) 0.8593(5) 0.8814(5)
H16 H 0.1874 0.8488 0.8882
C17 C 0.1817(8) 0.8664(6) 0.8664(6)
C18 C 0.1634(8) 0.8597(7) 0.8597(7)
C19 C 0.1549(6) 0.8701(7) 0.8451(6)
H19 H 0.1586 0.8826 0.8414
O1 O 0.0931(4) 0.9826(3) 0.6182(3)
O2 O 0.0695(3) 0.9826(3) 0.5949(4)
C1 C 0.0779(4) 0.9746(5) 0.6100(4)
C2 C 0.0648(4) 0.9611(5) 0.6202(5)
C3 C 0.0493(5) 0.9507(5) 0.6134(7)
H3 H 0.0448 0.9552 0.6014
C4 C 0.0707(5) 0.9520(5) 0.6369(4)
H4 H 0.0825 0.9565 0.6417
C5 C 0.0625(6) 0.9375(6) 0.6480(8)
C6 C 0.0692(6) 0.9308(6) 0.6664(8)
C7 C 0.0744(6) 0.9256(6) 0.6821(8)
C8 C 0.0833(6) 0.9167(6) 0.6985(8)
C9 C 0.1002(4) 0.9258(5) 0.7037(5)
H9 H 0.1065 0.9356 0.6966
C10 C 0.1063(5) 0.9182(5) 0.7210(4)
H10 H 0.1175 0.9232 0.7267
C11 C 0.0965(6) 0.9035(6) 0.7300(8)
C12 C 0.1033(5) 0.8967(5) 0.7482(9)
C13 C 0.1114(6) 0.8886(6) 0.7614(8)
C14 C 0.1171(6) 0.8829(6) 0.7804(8)
C15 C 0.1340(5) 0.8874(5) 0.7897(5)
H15 H 0.1423 0.8958 0.7830
C16 C 0.1407(5) 0.8814(5) 0.8074(5)
H16 H 0.1512 0.8882 0.8126
C17 C 0.1336(6) 0.8664(6) 0.8183(8)
C18 C 0.1403(7) 0.8597(7) 0.8366(8)
C19 C 0.1299(7) 0.8451(6) 0.8451(6)
H19 H 0.1174 0.8414 0.8414
O1 O 0.0174(3) 0.6182(3) 0.9069(4)
O2 O 0.0174(3) 0.5949(4) 0.9305(3)
C1 C 0.0254(5) 0.6100(4) 0.9221(4)
C2 C 0.0389(5) 0.6202(5) 0.9352(4)
C3 C 0.0493(5) 0.6134(7) 0.9507(5)
H3 H 0.0448 0.6014 0.9552
C4 C 0.0480(5) 0.6369(4) 0.9293(5)
H4 H 0.0435 0.6417 0.9175
C5 C 0.0625(6) 0.6480(8) 0.9375(6)
C6 C 0.0692(6) 0.6664(8) 0.9308(6)
C7 C 0.0744(6) 0.6821(8) 0.9256(6)
C8 C 0.0833(6) 0.6985(8) 0.9167(6)
C9 C 0.0742(5) 0.7037(5) 0.8998(4)
H9 H 0.0644 0.6966 0.8935
C10 C 0.0818(5) 0.7210(4) 0.8937(5)
H10 H 0.0768 0.7267 0.8825
C11 C 0.0965(6) 0.7300(8) 0.9035(6)
C12 C 0.1033(5) 0.7482(9) 0.8967(5)
C13 C 0.1114(6) 0.7614(8) 0.8886(6)
C14 C 0.1171(6) 0.7804(8) 0.8829(6)
C15 C 0.1126(5) 0.7897(5) 0.8660(5)
H15 H 0.1042 0.7830 0.8577
C16 C 0.1186(5) 0.8074(5) 0.8593(5)
H16 H 0.1118 0.8126 0.8488
C17 C 0.1336(6) 0.8183(8) 0.8664(6)
C18 C 0.1403(7) 0.8366(8) 0.8597(7)
C19 C 0.1549(6) 0.8451(6) 0.8701(7)
H19 H 0.1586 0.8414 0.8826
O1 O 0.3818(3) 0.9826(3) 0.9069(4)
O2 O 0.4051(4) 0.9826(3) 0.9305(3)
C1 C 0.3900(4) 0.9746(5) 0.9221(4)
C2 C 0.3798(5) 0.9611(5) 0.9352(4)
C4 C 0.3631(4) 0.9520(5) 0.9293(5)
H4 H 0.3583 0.9565 0.9175
C9 C 0.2963(5) 0.9258(5) 0.8998(4)
H9 H 0.3034 0.9356 0.8935
C10 C 0.2790(4) 0.9182(5) 0.8937(5)
H10 H 0.2733 0.9232 0.8825
C15 C 0.2103(5) 0.8874(5) 0.8660(5)
H15 H 0.2170 0.8958 0.8577
C16 C 0.1926(5) 0.8814(5) 0.8593(5)
H16 H 0.1874 0.8882 0.8488
O1 O 0.0174(3) 0.9069(4) 0.6182(3)
O2 O 0.0174(3) 0.9305(3) 0.5949(4)
C1 C 0.0254(5) 0.9221(4) 0.6100(4)
C2 C 0.0389(5) 0.9352(4) 0.6202(5)
C4 C 0.0480(5) 0.9293(5) 0.6369(4)
H4 H 0.0435 0.9175 0.6417
C9 C 0.0742(5) 0.8998(4) 0.7037(5)
H9 H 0.0644 0.8935 0.6966
C10 C 0.0818(5) 0.8937(5) 0.7210(4)
H10 H 0.0768 0.8825 0.7267
C15 C 0.1126(5) 0.8660(5) 0.7897(5)
H15 H 0.1042 0.8577 0.7830
C16 C 0.1186(5) 0.8593(5) 0.8074(5)
H16 H 0.1118 0.8488 0.8126
O1 O 0.0931(4) 0.6182(3) 0.9826(3)
O2 O 0.0695(3) 0.5949(4) 0.9826(3)
C1 C 0.0779(4) 0.6100(4) 0.9746(5)
C2 C 0.0648(4) 0.6202(5) 0.9611(5)
C4 C 0.0707(5) 0.6369(4) 0.9520(5)
H4 H 0.0825 0.6417 0.9565
C9 C 0.1002(4) 0.7037(5) 0.9258(5)
H9 H 0.1065 0.6966 0.9356
C10 C 0.1063(5) 0.7210(4) 0.9182(5)
H10 H 0.1175 0.7267 0.9232
C15 C 0.1340(5) 0.7897(5) 0.8874(5)
H15 H 0.1423 0.7830 0.8958
C16 C 0.1407(5) 0.8074(5) 0.8814(5)
H16 H 0.1512 0.8126 0.8882
O1 O 0.4069(4) 0.8818(3) 1.0174(3)
O1 O 0.3818(3) 1.0174(3) 0.9069(4)
O1 O 0.3818(3) 0.9069(4) 1.0174(3)
O1 O 0.4069(4) 1.0174(3) 0.8818(3)
O2 O 0.4305(3) 0.9051(4) 1.0174(3)
O2 O 0.4051(4) 1.0174(3) 0.9305(3)
O2 O 0.4051(4) 0.9305(3) 1.0174(3)
O2 O 0.4305(3) 1.0174(3) 0.9051(4)
O1 O 0.6182(3) 0.9826(3) 0.9069(4)
O2 O 0.5949(4) 0.9826(3) 0.9305(3)
C1 C 0.6100(4) 0.9746(5) 0.9221(4)
C2 C 0.6202(5) 0.9611(5) 0.9352(4)
C3 C 0.6134(7) 0.9507(5) 0.9507(5)
H3 H 0.6014 0.9552 0.9552
C4 C 0.6369(4) 0.9520(5) 0.9293(5)
H4 H 0.6417 0.9565 0.9175
C5 C 0.6480(8) 0.9375(6) 0.9375(6)
C6 C 0.6664(8) 0.9308(6) 0.9308(6)
C7 C 0.6821(8) 0.9256(6) 0.9256(6)
C8 C 0.6985(8) 0.9167(6) 0.9167(6)
C9 C 0.7037(5) 0.9258(5) 0.8998(4)
H9 H 0.6966 0.9356 0.8935
C10 C 0.7210(4) 0.9182(5) 0.8937(5)
H10 H 0.7267 0.9232 0.8825
C11 C 0.7300(8) 0.9035(6) 0.9035(6)
C12 C 0.7482(9) 0.8967(5) 0.8967(5)
C13 C 0.7614(8) 0.8886(6) 0.8886(6)
C14 C 0.7804(8) 0.8829(6) 0.8829(6)
C15 C 0.7897(5) 0.8874(5) 0.8660(5)
H15 H 0.7830 0.8958 0.8577
C16 C 0.8074(5) 0.8814(5) 0.8593(5)
H16 H 0.8126 0.8882 0.8488
C17 C 0.8183(8) 0.8664(6) 0.8664(6)
C18 C 0.8366(8) 0.8597(7) 0.8597(7)
C19 C 0.8451(6) 0.8451(6) 0.8701(7)
H19 H 0.8414 0.8414 0.8826
O1 O 0.9069(4) 0.6182(3) 0.9826(3)
O2 O 0.9305(3) 0.5949(4) 0.9826(3)
C1 C 0.9221(4) 0.6100(4) 0.9746(5)
C2 C 0.9352(4) 0.6202(5) 0.9611(5)
C3 C 0.9507(5) 0.6134(7) 0.9507(5)
H3 H 0.9552 0.6014 0.9552
C4 C 0.9293(5) 0.6369(4) 0.9520(5)
H4 H 0.9175 0.6417 0.9565
C5 C 0.9375(6) 0.6480(8) 0.9375(6)
C6 C 0.9308(6) 0.6664(8) 0.9308(6)
C7 C 0.9256(6) 0.6821(8) 0.9256(6)
C8 C 0.9167(6) 0.6985(8) 0.9167(6)
C9 C 0.8998(4) 0.7037(5) 0.9258(5)
H9 H 0.8935 0.6966 0.9356
C10 C 0.8937(5) 0.7210(4) 0.9182(5)
H10 H 0.8825 0.7267 0.9232
C11 C 0.9035(6) 0.7300(8) 0.9035(6)
C12 C 0.8967(5) 0.7482(9) 0.8967(5)
C13 C 0.8886(6) 0.7614(8) 0.8886(6)
C14 C 0.8829(6) 0.7804(8) 0.8829(6)
C15 C 0.8660(5) 0.7897(5) 0.8874(5)
H15 H 0.8577 0.7830 0.8958
C16 C 0.8593(5) 0.8074(5) 0.8814(5)
H16 H 0.8488 0.8126 0.8882
C17 C 0.8664(6) 0.8183(8) 0.8664(6)
C18 C 0.8597(7) 0.8366(8) 0.8597(7)
C19 C 0.8701(7) 0.8451(6) 0.8451(6)
H19 H 0.8826 0.8414 0.8414
O1 O 0.9826(3) 0.9069(4) 0.6182(3)
O2 O 0.9826(3) 0.9305(3) 0.5949(4)
C1 C 0.9746(5) 0.9221(4) 0.6100(4)
C2 C 0.9611(5) 0.9352(4) 0.6202(5)
C3 C 0.9507(5) 0.9507(5) 0.6134(7)
H3 H 0.9552 0.9552 0.6014
C4 C 0.9520(5) 0.9293(5) 0.6369(4)
H4 H 0.9565 0.9175 0.6417
C5 C 0.9375(6) 0.9375(6) 0.6480(8)
C6 C 0.9308(6) 0.9308(6) 0.6664(8)
C7 C 0.9256(6) 0.9256(6) 0.6821(8)
C8 C 0.9167(6) 0.9167(6) 0.6985(8)
C9 C 0.9258(5) 0.8998(4) 0.7037(5)
H9 H 0.9356 0.8935 0.6966
C10 C 0.9182(5) 0.8937(5) 0.7210(4)
H10 H 0.9232 0.8825 0.7267
C11 C 0.9035(6) 0.9035(6) 0.7300(8)
C12 C 0.8967(5) 0.8967(5) 0.7482(9)
C13 C 0.8886(6) 0.8886(6) 0.7614(8)
C14 C 0.8829(6) 0.8829(6) 0.7804(8)
C15 C 0.8874(5) 0.8660(5) 0.7897(5)
H15 H 0.8958 0.8577 0.7830
C16 C 0.8814(5) 0.8593(5) 0.8074(5)
H16 H 0.8882 0.8488 0.8126
C17 C 0.8664(6) 0.8664(6) 0.8183(8)
C18 C 0.8597(7) 0.8597(7) 0.8366(8)
C19 C 0.8451(6) 0.8701(7) 0.8451(6)
H19 H 0.8414 0.8826 0.8414
O1 O 0.6182(3) 0.9069(4) 0.9826(3)
O2 O 0.5949(4) 0.9305(3) 0.9826(3)
C1 C 0.6100(4) 0.9221(4) 0.9746(5)
C2 C 0.6202(5) 0.9352(4) 0.9611(5)
C4 C 0.6369(4) 0.9293(5) 0.9520(5)
H4 H 0.6417 0.9175 0.9565
C9 C 0.7037(5) 0.8998(4) 0.9258(5)
H9 H 0.6966 0.8935 0.9356
C10 C 0.7210(4) 0.8937(5) 0.9182(5)
H10 H 0.7267 0.8825 0.9232
C15 C 0.7897(5) 0.8660(5) 0.8874(5)
H15 H 0.7830 0.8577 0.8958
C16 C 0.8074(5) 0.8593(5) 0.8814(5)
H16 H 0.8126 0.8488 0.8882
O1 O 0.9826(3) 0.6182(3) 0.9069(4)
O2 O 0.9826(3) 0.5949(4) 0.9305(3)
C1 C 0.9746(5) 0.6100(4) 0.9221(4)
C2 C 0.9611(5) 0.6202(5) 0.9352(4)
C4 C 0.9520(5) 0.6369(4) 0.9293(5)
H4 H 0.9565 0.6417 0.9175
C9 C 0.9258(5) 0.7037(5) 0.8998(4)
H9 H 0.9356 0.6966 0.8935
C10 C 0.9182(5) 0.7210(4) 0.8937(5)
H10 H 0.9232 0.7267 0.8825
C15 C 0.8874(5) 0.7897(5) 0.8660(5)
H15 H 0.8958 0.7830 0.8577
C16 C 0.8814(5) 0.8074(5) 0.8593(5)
H16 H 0.8882 0.8126 0.8488
O1 O 0.9069(4) 0.9826(3) 0.6182(3)
O2 O 0.9305(3) 0.9826(3) 0.5949(4)
C1 C 0.9221(4) 0.9746(5) 0.6100(4)
C2 C 0.9352(4) 0.9611(5) 0.6202(5)
C4 C 0.9293(5) 0.9520(5) 0.6369(4)
H4 H 0.9175 0.9565 0.6417
C9 C 0.8998(4) 0.9258(5) 0.7037(5)
H9 H 0.8935 0.9356 0.6966
C10 C 0.8937(5) 0.9182(5) 0.7210(4)
H10 H 0.8825 0.9232 0.7267
C15 C 0.8660(5) 0.8874(5) 0.7897(5)
H15 H 0.8577 0.8958 0.7830
C16 C 0.8593(5) 0.8814(5) 0.8074(5)
H16 H 0.8488 0.8882 0.8126
O1 O 0.6182(3) 0.9069(4) 1.0174(3)
O1 O 0.5931(4) 1.0174(3) 0.8818(3)
O1 O 0.5931(4) 0.8818(3) 1.0174(3)
O1 O 0.6182(3) 1.0174(3) 0.9069(4)
O2 O 0.5949(4) 0.9305(3) 1.0174(3)
O2 O 0.5695(3) 1.0174(3) 0.9051(4)
O2 O 0.5695(3) 0.9051(4) 1.0174(3)
O2 O 0.5949(4) 1.0174(3) 0.9305(3)
O1 O 0.3818(3) 0.0174(3) 0.9069(4)
O2 O 0.4051(4) 0.0174(3) 0.9305(3)
C1 C 0.3900(4) 0.0254(5) 0.9221(4)
C2 C 0.3798(5) 0.0389(5) 0.9352(4)
C3 C 0.3866(7) 0.0493(5) 0.9507(5)
H3 H 0.3986 0.0448 0.9552
C4 C 0.3631(4) 0.0480(5) 0.9293(5)
H4 H 0.3583 0.0435 0.9175
C5 C 0.3520(8) 0.0625(6) 0.9375(6)
C6 C 0.3336(8) 0.0692(6) 0.9308(6)
C7 C 0.3179(8) 0.0744(6) 0.9256(6)
C8 C 0.3015(8) 0.0833(6) 0.9167(6)
C9 C 0.2963(5) 0.0742(5) 0.8998(4)
H9 H 0.3034 0.0644 0.8935
C10 C 0.2790(4) 0.0818(5) 0.8937(5)
H10 H 0.2733 0.0768 0.8825
C11 C 0.2700(8) 0.0965(6) 0.9035(6)
C12 C 0.2518(9) 0.1033(5) 0.8967(5)
C13 C 0.2386(8) 0.1114(6) 0.8886(6)
C14 C 0.2196(8) 0.1171(6) 0.8829(6)
C15 C 0.2103(5) 0.1126(5) 0.8660(5)
H15 H 0.2170 0.1042 0.8577
C16 C 0.1926(5) 0.1186(5) 0.8593(5)
H16 H 0.1874 0.1118 0.8488
C17 C 0.1817(8) 0.1336(6) 0.8664(6)
C18 C 0.1634(8) 0.1403(7) 0.8597(7)
C19 C 0.1549(6) 0.1549(6) 0.8701(7)
H19 H 0.1586 0.1586 0.8826
O1 O 0.0931(4) 0.3818(3) 0.9826(3)
O2 O 0.0695(3) 0.4051(4) 0.9826(3)
C1 C 0.0779(4) 0.3900(4) 0.9746(5)
C2 C 0.0648(4) 0.3798(5) 0.9611(5)
C3 C 0.0493(5) 0.3866(7) 0.9507(5)
H3 H 0.0448 0.3986 0.9552
C4 C 0.0707(5) 0.3631(4) 0.9520(5)
H4 H 0.0825 0.3583 0.9565
C5 C 0.0625(6) 0.3520(8) 0.9375(6)
C6 C 0.0692(6) 0.3336(8) 0.9308(6)
C7 C 0.0744(6) 0.3179(8) 0.9256(6)
C8 C 0.0833(6) 0.3015(8) 0.9167(6)
C9 C 0.1002(4) 0.2963(5) 0.9258(5)
H9 H 0.1065 0.3034 0.9356
C10 C 0.1063(5) 0.2790(4) 0.9182(5)
H10 H 0.1175 0.2733 0.9232
C11 C 0.0965(6) 0.2700(8) 0.9035(6)
C12 C 0.1033(5) 0.2518(9) 0.8967(5)
C13 C 0.1114(6) 0.2386(8) 0.8886(6)
C14 C 0.1171(6) 0.2196(8) 0.8829(6)
C15 C 0.1340(5) 0.2103(5) 0.8874(5)
H15 H 0.1423 0.2170 0.8958
C16 C 0.1407(5) 0.1926(5) 0.8814(5)
H16 H 0.1512 0.1874 0.8882
C17 C 0.1336(6) 0.1817(8) 0.8664(6)
C18 C 0.1403(7) 0.1634(8) 0.8597(7)
C19 C 0.1299(7) 0.1549(6) 0.8451(6)
H19 H 0.1174 0.1586 0.8414
O1 O 0.0174(3) 0.0931(4) 0.6182(3)
O2 O 0.0174(3) 0.0695(3) 0.5949(4)
C1 C 0.0254(5) 0.0779(4) 0.6100(4)
C2 C 0.0389(5) 0.0648(4) 0.6202(5)
C3 C 0.0493(5) 0.0493(5) 0.6134(7)
H3 H 0.0448 0.0448 0.6014
C4 C 0.0480(5) 0.0707(5) 0.6369(4)
H4 H 0.0435 0.0825 0.6417
C5 C 0.0625(6) 0.0625(6) 0.6480(8)
C6 C 0.0692(6) 0.0692(6) 0.6664(8)
C7 C 0.0744(6) 0.0744(6) 0.6821(8)
C8 C 0.0833(6) 0.0833(6) 0.6985(8)
C9 C 0.0742(5) 0.1002(4) 0.7037(5)
H9 H 0.0644 0.1065 0.6966
C10 C 0.0818(5) 0.1063(5) 0.7210(4)
H10 H 0.0768 0.1175 0.7267
C11 C 0.0965(6) 0.0965(6) 0.7300(8)
C12 C 0.1033(5) 0.1033(5) 0.7482(9)
C13 C 0.1114(6) 0.1114(6) 0.7614(8)
C14 C 0.1171(6) 0.1171(6) 0.7804(8)
C15 C 0.1126(5) 0.1340(5) 0.7897(5)
H15 H 0.1042 0.1423 0.7830
C16 C 0.1186(5) 0.1407(5) 0.8074(5)
H16 H 0.1118 0.1512 0.8126
C17 C 0.1336(6) 0.1336(6) 0.8183(8)
C18 C 0.1403(7) 0.1403(7) 0.8366(8)
C19 C 0.1549(6) 0.1299(7) 0.8451(6)
H19 H 0.1586 0.1174 0.8414
O1 O 0.3818(3) 0.0931(4) 0.9826(3)
O2 O 0.4051(4) 0.0695(3) 0.9826(3)
C1 C 0.3900(4) 0.0779(4) 0.9746(5)
C2 C 0.3798(5) 0.0648(4) 0.9611(5)
C4 C 0.3631(4) 0.0707(5) 0.9520(5)
H4 H 0.3583 0.0825 0.9565
C9 C 0.2963(5) 0.1002(4) 0.9258(5)
H9 H 0.3034 0.1065 0.9356
C10 C 0.2790(4) 0.1063(5) 0.9182(5)
H10 H 0.2733 0.1175 0.9232
C15 C 0.2103(5) 0.1340(5) 0.8874(5)
H15 H 0.2170 0.1423 0.8958
C16 C 0.1926(5) 0.1407(5) 0.8814(5)
H16 H 0.1874 0.1512 0.8882
O1 O 0.0174(3) 0.3818(3) 0.9069(4)
O2 O 0.0174(3) 0.4051(4) 0.9305(3)
C1 C 0.0254(5) 0.3900(4) 0.9221(4)
C2 C 0.0389(5) 0.3798(5) 0.9352(4)
C4 C 0.0480(5) 0.3631(4) 0.9293(5)
H4 H 0.0435 0.3583 0.9175
C9 C 0.0742(5) 0.2963(5) 0.8998(4)
H9 H 0.0644 0.3034 0.8935
C10 C 0.0818(5) 0.2790(4) 0.8937(5)
H10 H 0.0768 0.2733 0.8825
C15 C 0.1126(5) 0.2103(5) 0.8660(5)
H15 H 0.1042 0.2170 0.8577
C16 C 0.1186(5) 0.1926(5) 0.8593(5)
H16 H 0.1118 0.1874 0.8488
O1 O 0.0931(4) 0.0174(3) 0.6182(3)
O2 O 0.0695(3) 0.0174(3) 0.5949(4)
C1 C 0.0779(4) 0.0254(5) 0.6100(4)
C2 C 0.0648(4) 0.0389(5) 0.6202(5)
C4 C 0.0707(5) 0.0480(5) 0.6369(4)
H4 H 0.0825 0.0435 0.6417
C9 C 0.1002(4) 0.0742(5) 0.7037(5)
H9 H 0.1065 0.0644 0.6966
C10 C 0.1063(5) 0.0818(5) 0.7210(4)
H10 H 0.1175 0.0768 0.7267
C15 C 0.1340(5) 0.1126(5) 0.7897(5)
H15 H 0.1423 0.1042 0.7830
C16 C 0.1407(5) 0.1186(5) 0.8074(5)
H16 H 0.1512 0.1118 0.8126
O1 O 0.3818(3) 0.0931(4) 1.0174(3)
O1 O 0.4069(4) -0.0174(3) 0.8818(3)
O1 O 0.4069(4) 0.1182(3) 1.0174(3)
O1 O 0.3818(3) -0.0174(3) 0.9069(4)
O2 O 0.4051(4) 0.0695(3) 1.0174(3)
O2 O 0.4305(3) -0.0174(3) 0.9051(4)
O2 O 0.4305(3) 0.0949(4) 1.0174(3)
O2 O 0.4051(4) -0.0174(3) 0.9305(3)
O1 O 0.6182(3) 0.0174(3) 0.0931(4)
O2 O 0.5949(4) 0.0174(3) 0.0695(3)
C1 C 0.6100(4) 0.0254(5) 0.0779(4)
C2 C 0.6202(5) 0.0389(5) 0.0648(4)
C3 C 0.6134(7) 0.0493(5) 0.0493(5)
H3 H 0.6014 0.0448 0.0448
C4 C 0.6369(4) 0.0480(5) 0.0707(5)
H4 H 0.6417 0.0435 0.0825
C5 C 0.6480(8) 0.0625(6) 0.0625(6)
C6 C 0.6664(8) 0.0692(6) 0.0692(6)
C7 C 0.6821(8) 0.0744(6) 0.0744(6)
C8 C 0.6985(8) 0.0833(6) 0.0833(6)
C9 C 0.7037(5) 0.0742(5) 0.1002(4)
H9 H 0.6966 0.0644 0.1065
C10 C 0.7210(4) 0.0818(5) 0.1063(5)
H10 H 0.7267 0.0768 0.1175
C11 C 0.7300(8) 0.0965(6) 0.0965(6)
C12 C 0.7482(9) 0.1033(5) 0.1033(5)
C13 C 0.7614(8) 0.1114(6) 0.1114(6)
C14 C 0.7804(8) 0.1171(6) 0.1171(6)
C15 C 0.7897(5) 0.1126(5) 0.1340(5)
H15 H 0.7830 0.1042 0.1423
C16 C 0.8074(5) 0.1186(5) 0.1407(5)
H16 H 0.8126 0.1118 0.1512
C17 C 0.8183(8) 0.1336(6) 0.1336(6)
C18 C 0.8366(8) 0.1403(7) 0.1403(7)
C19 C 0.8451(6) 0.1549(6) 0.1299(7)
H19 H 0.8414 0.1586 0.1174
O1 O 0.9069(4) 0.3818(3) 0.0174(3)
O2 O 0.9305(3) 0.4051(4) 0.0174(3)
C1 C 0.9221(4) 0.3900(4) 0.0254(5)
C2 C 0.9352(4) 0.3798(5) 0.0389(5)
C3 C 0.9507(5) 0.3866(7) 0.0493(5)
H3 H 0.9552 0.3986 0.0448
C4 C 0.9293(5) 0.3631(4) 0.0480(5)
H4 H 0.9175 0.3583 0.0435
C5 C 0.9375(6) 0.3520(8) 0.0625(6)
C6 C 0.9308(6) 0.3336(8) 0.0692(6)
C7 C 0.9256(6) 0.3179(8) 0.0744(6)
C8 C 0.9167(6) 0.3015(8) 0.0833(6)
C9 C 0.8998(4) 0.2963(5) 0.0742(5)
H9 H 0.8935 0.3034 0.0644
C10 C 0.8937(5) 0.2790(4) 0.0818(5)
H10 H 0.8825 0.2733 0.0768
C11 C 0.9035(6) 0.2700(8) 0.0965(6)
C12 C 0.8967(5) 0.2518(9) 0.1033(5)
C13 C 0.8886(6) 0.2386(8) 0.1114(6)
C14 C 0.8829(6) 0.2196(8) 0.1171(6)
C15 C 0.8660(5) 0.2103(5) 0.1126(5)
H15 H 0.8577 0.2170 0.1042
C16 C 0.8593(5) 0.1926(5) 0.1186(5)
H16 H 0.8488 0.1874 0.1118
C17 C 0.8664(6) 0.1817(8) 0.1336(6)
C18 C 0.8597(7) 0.1634(8) 0.1403(7)
C19 C 0.8701(7) 0.1549(6) 0.1549(6)
H19 H 0.8826 0.1586 0.1586
O1 O 0.9826(3) 0.0931(4) 0.3818(3)
O2 O 0.9826(3) 0.0695(3) 0.4051(4)
C1 C 0.9746(5) 0.0779(4) 0.3900(4)
C2 C 0.9611(5) 0.0648(4) 0.3798(5)
C3 C 0.9507(5) 0.0493(5) 0.3866(7)
H3 H 0.9552 0.0448 0.3986
C4 C 0.9520(5) 0.0707(5) 0.3631(4)
H4 H 0.9565 0.0825 0.3583
C5 C 0.9375(6) 0.0625(6) 0.3520(8)
C6 C 0.9308(6) 0.0692(6) 0.3336(8)
C7 C 0.9256(6) 0.0744(6) 0.3179(8)
C8 C 0.9167(6) 0.0833(6) 0.3015(8)
C9 C 0.9258(5) 0.1002(4) 0.2963(5)
H9 H 0.9356 0.1065 0.3034
C10 C 0.9182(5) 0.1063(5) 0.2790(4)
H10 H 0.9232 0.1175 0.2733
C11 C 0.9035(6) 0.0965(6) 0.2700(8)
C12 C 0.8967(5) 0.1033(5) 0.2518(9)
C13 C 0.8886(6) 0.1114(6) 0.2386(8)
C14 C 0.8829(6) 0.1171(6) 0.2196(8)
C15 C 0.8874(5) 0.1340(5) 0.2103(5)
H15 H 0.8958 0.1423 0.2170
C16 C 0.8814(5) 0.1407(5) 0.1926(5)
H16 H 0.8882 0.1512 0.1874
C17 C 0.8664(6) 0.1336(6) 0.1817(8)
C18 C 0.8597(7) 0.1403(7) 0.1634(8)
C19 C 0.8451(6) 0.1299(7) 0.1549(6)
H19 H 0.8414 0.1174 0.1586
O1 O 0.6182(3) 0.0931(4) 0.0174(3)
O2 O 0.5949(4) 0.0695(3) 0.0174(3)
C1 C 0.6100(4) 0.0779(4) 0.0254(5)
C2 C 0.6202(5) 0.0648(4) 0.0389(5)
C4 C 0.6369(4) 0.0707(5) 0.0480(5)
H4 H 0.6417 0.0825 0.0435
C9 C 0.7037(5) 0.1002(4) 0.0742(5)
H9 H 0.6966 0.1065 0.0644
C10 C 0.7210(4) 0.1063(5) 0.0818(5)
H10 H 0.7267 0.1175 0.0768
C15 C 0.7897(5) 0.1340(5) 0.1126(5)
H15 H 0.7830 0.1423 0.1042
C16 C 0.8074(5) 0.1407(5) 0.1186(5)
H16 H 0.8126 0.1512 0.1118
O1 O 0.9826(3) 0.3818(3) 0.0931(4)
O2 O 0.9826(3) 0.4051(4) 0.0695(3)
C1 C 0.9746(5) 0.3900(4) 0.0779(4)
C2 C 0.9611(5) 0.3798(5) 0.0648(4)
C4 C 0.9520(5) 0.3631(4) 0.0707(5)
H4 H 0.9565 0.3583 0.0825
C9 C 0.9258(5) 0.2963(5) 0.1002(4)
H9 H 0.9356 0.3034 0.1065
C10 C 0.9182(5) 0.2790(4) 0.1063(5)
H10 H 0.9232 0.2733 0.1175
C15 C 0.8874(5) 0.2103(5) 0.1340(5)
H15 H 0.8958 0.2170 0.1423
C16 C 0.8814(5) 0.1926(5) 0.1407(5)
H16 H 0.8882 0.1874 0.1512
O1 O 0.9069(4) 0.0174(3) 0.3818(3)
O2 O 0.9305(3) 0.0174(3) 0.4051(4)
C1 C 0.9221(4) 0.0254(5) 0.3900(4)
C2 C 0.9352(4) 0.0389(5) 0.3798(5)
C4 C 0.9293(5) 0.0480(5) 0.3631(4)
H4 H 0.9175 0.0435 0.3583
C9 C 0.8998(4) 0.0742(5) 0.2963(5)
H9 H 0.8935 0.0644 0.3034
C10 C 0.8937(5) 0.0818(5) 0.2790(4)
H10 H 0.8825 0.0768 0.2733
C15 C 0.8660(5) 0.1126(5) 0.2103(5)
H15 H 0.8577 0.1042 0.2170
C16 C 0.8593(5) 0.1186(5) 0.1926(5)
H16 H 0.8488 0.1118 0.1874
O1 O 0.6182(3) 0.0931(4) -0.0174(3)
O1 O 0.5931(4) -0.0174(3) 0.1182(3)
O1 O 0.5931(4) 0.1182(3) -0.0174(3)
O1 O 0.6182(3) -0.0174(3) 0.0931(4)
O2 O 0.5949(4) 0.0695(3) -0.0174(3)
O2 O 0.5695(3) -0.0174(3) 0.0949(4)
O2 O 0.5695(3) 0.0949(4) -0.0174(3)
O2 O 0.5949(4) -0.0174(3) 0.0695(3)
O1 O 0.3818(3) 0.9826(3) 0.0931(4)
O2 O 0.4051(4) 0.9826(3) 0.0695(3)
C1 C 0.3900(4) 0.9746(5) 0.0779(4)
C2 C 0.3798(5) 0.9611(5) 0.0648(4)
C3 C 0.3866(7) 0.9507(5) 0.0493(5)
H3 H 0.3986 0.9552 0.0448
C4 C 0.3631(4) 0.9520(5) 0.0707(5)
H4 H 0.3583 0.9565 0.0825
C5 C 0.3520(8) 0.9375(6) 0.0625(6)
C6 C 0.3336(8) 0.9308(6) 0.0692(6)
C7 C 0.3179(8) 0.9256(6) 0.0744(6)
C8 C 0.3015(8) 0.9167(6) 0.0833(6)
C9 C 0.2963(5) 0.9258(5) 0.1002(4)
H9 H 0.3034 0.9356 0.1065
C10 C 0.2790(4) 0.9182(5) 0.1063(5)
H10 H 0.2733 0.9232 0.1175
C11 C 0.2700(8) 0.9035(6) 0.0965(6)
C12 C 0.2518(9) 0.8967(5) 0.1033(5)
C13 C 0.2386(8) 0.8886(6) 0.1114(6)
C14 C 0.2196(8) 0.8829(6) 0.1171(6)
C15 C 0.2103(5) 0.8874(5) 0.1340(5)
H15 H 0.2170 0.8958 0.1423
C16 C 0.1926(5) 0.8814(5) 0.1407(5)
H16 H 0.1874 0.8882 0.1512
C17 C 0.1817(8) 0.8664(6) 0.1336(6)
C18 C 0.1634(8) 0.8597(7) 0.1403(7)
C19 C 0.1549(6) 0.8451(6) 0.1299(7)
H19 H 0.1586 0.8414 0.1174
O1 O 0.0931(4) 0.6182(3) 0.0174(3)
O2 O 0.0695(3) 0.5949(4) 0.0174(3)
C1 C 0.0779(4) 0.6100(4) 0.0254(5)
C2 C 0.0648(4) 0.6202(5) 0.0389(5)
C3 C 0.0493(5) 0.6134(7) 0.0493(5)
H3 H 0.0448 0.6014 0.0448
C4 C 0.0707(5) 0.6369(4) 0.0480(5)
H4 H 0.0825 0.6417 0.0435
C5 C 0.0625(6) 0.6480(8) 0.0625(6)
C6 C 0.0692(6) 0.6664(8) 0.0692(6)
C7 C 0.0744(6) 0.6821(8) 0.0744(6)
C8 C 0.0833(6) 0.6985(8) 0.0833(6)
C9 C 0.1002(4) 0.7037(5) 0.0742(5)
H9 H 0.1065 0.6966 0.0644
C10 C 0.1063(5) 0.7210(4) 0.0818(5)
H10 H 0.1175 0.7267 0.0768
C11 C 0.0965(6) 0.7300(8) 0.0965(6)
C12 C 0.1033(5) 0.7482(9) 0.1033(5)
C13 C 0.1114(6) 0.7614(8) 0.1114(6)
C14 C 0.1171(6) 0.7804(8) 0.1171(6)
C15 C 0.1340(5) 0.7897(5) 0.1126(5)
H15 H 0.1423 0.7830 0.1042
C16 C 0.1407(5) 0.8074(5) 0.1186(5)
H16 H 0.1512 0.8126 0.1118
C17 C 0.1336(6) 0.8183(8) 0.1336(6)
C18 C 0.1403(7) 0.8366(8) 0.1403(7)
C19 C 0.1299(7) 0.8451(6) 0.1549(6)
H19 H 0.1174 0.8414 0.1586
O1 O 0.0174(3) 0.9069(4) 0.3818(3)
O2 O 0.0174(3) 0.9305(3) 0.4051(4)
C1 C 0.0254(5) 0.9221(4) 0.3900(4)
C2 C 0.0389(5) 0.9352(4) 0.3798(5)
C3 C 0.0493(5) 0.9507(5) 0.3866(7)
H3 H 0.0448 0.9552 0.3986
C4 C 0.0480(5) 0.9293(5) 0.3631(4)
H4 H 0.0435 0.9175 0.3583
C5 C 0.0625(6) 0.9375(6) 0.3520(8)
C6 C 0.0692(6) 0.9308(6) 0.3336(8)
C7 C 0.0744(6) 0.9256(6) 0.3179(8)
C8 C 0.0833(6) 0.9167(6) 0.3015(8)
C9 C 0.0742(5) 0.8998(4) 0.2963(5)
H9 H 0.0644 0.8935 0.3034
C10 C 0.0818(5) 0.8937(5) 0.2790(4)
H10 H 0.0768 0.8825 0.2733
C11 C 0.0965(6) 0.9035(6) 0.2700(8)
C12 C 0.1033(5) 0.8967(5) 0.2518(9)
C13 C 0.1114(6) 0.8886(6) 0.2386(8)
C14 C 0.1171(6) 0.8829(6) 0.2196(8)
C15 C 0.1126(5) 0.8660(5) 0.2103(5)
H15 H 0.1042 0.8577 0.2170
C16 C 0.1186(5) 0.8593(5) 0.1926(5)
H16 H 0.1118 0.8488 0.1874
C17 C 0.1336(6) 0.8664(6) 0.1817(8)
C18 C 0.1403(7) 0.8597(7) 0.1634(8)
C19 C 0.1549(6) 0.8701(7) 0.1549(6)
H19 H 0.1586 0.8826 0.1586
O1 O 0.3818(3) 0.9069(4) 0.0174(3)
O2 O 0.4051(4) 0.9305(3) 0.0174(3)
C1 C 0.3900(4) 0.9221(4) 0.0254(5)
C2 C 0.3798(5) 0.9352(4) 0.0389(5)
C4 C 0.3631(4) 0.9293(5) 0.0480(5)
H4 H 0.3583 0.9175 0.0435
C9 C 0.2963(5) 0.8998(4) 0.0742(5)
H9 H 0.3034 0.8935 0.0644
C10 C 0.2790(4) 0.8937(5) 0.0818(5)
H10 H 0.2733 0.8825 0.0768
C15 C 0.2103(5) 0.8660(5) 0.1126(5)
H15 H 0.2170 0.8577 0.1042
C16 C 0.1926(5) 0.8593(5) 0.1186(5)
H16 H 0.1874 0.8488 0.1118
O1 O 0.0174(3) 0.6182(3) 0.0931(4)
O2 O 0.0174(3) 0.5949(4) 0.0695(3)
C1 C 0.0254(5) 0.6100(4) 0.0779(4)
C2 C 0.0389(5) 0.6202(5) 0.0648(4)
C4 C 0.0480(5) 0.6369(4) 0.0707(5)
H4 H 0.0435 0.6417 0.0825
C9 C 0.0742(5) 0.7037(5) 0.1002(4)
H9 H 0.0644 0.6966 0.1065
C10 C 0.0818(5) 0.7210(4) 0.1063(5)
H10 H 0.0768 0.7267 0.1175
C15 C 0.1126(5) 0.7897(5) 0.1340(5)
H15 H 0.1042 0.7830 0.1423
C16 C 0.1186(5) 0.8074(5) 0.1407(5)
H16 H 0.1118 0.8126 0.1512
O1 O 0.0931(4) 0.9826(3) 0.3818(3)
O2 O 0.0695(3) 0.9826(3) 0.4051(4)
C1 C 0.0779(4) 0.9746(5) 0.3900(4)
C2 C 0.0648(4) 0.9611(5) 0.3798(5)
C4 C 0.0707(5) 0.9520(5) 0.3631(4)
H4 H 0.0825 0.9565 0.3583
C9 C 0.1002(4) 0.9258(5) 0.2963(5)
H9 H 0.1065 0.9356 0.3034
C10 C 0.1063(5) 0.9182(5) 0.2790(4)
H10 H 0.1175 0.9232 0.2733
C15 C 0.1340(5) 0.8874(5) 0.2103(5)
H15 H 0.1423 0.8958 0.2170
C16 C 0.1407(5) 0.8814(5) 0.1926(5)
H16 H 0.1512 0.8882 0.1874
O1 O 0.3818(3) 0.9069(4) -0.0174(3)
O1 O 0.4069(4) 1.0174(3) 0.1182(3)
O1 O 0.4069(4) 0.8818(3) -0.0174(3)
O1 O 0.3818(3) 1.0174(3) 0.0931(4)
O2 O 0.4051(4) 0.9305(3) -0.0174(3)
O2 O 0.4305(3) 1.0174(3) 0.0949(4)
O2 O 0.4305(3) 0.9051(4) -0.0174(3)
O2 O 0.4051(4) 1.0174(3) 0.0695(3)
O1 O 0.9069(4) 0.6182(3) -0.0174(3)
O1 O 1.0174(3) 0.5931(4) 0.1182(3)
O1 O 0.8818(3) 0.5931(4) -0.0174(3)
O1 O 1.0174(3) 0.6182(3) 0.0931(4)
O2 O 0.9305(3) 0.5949(4) -0.0174(3)
O2 O 1.0174(3) 0.5695(3) 0.0949(4)
O2 O 0.9051(4) 0.5695(3) -0.0174(3)
O2 O 1.0174(3) 0.5949(4) 0.0695(3)
O1 O 0.0931(4) 0.3818(3) -0.0174(3)
O1 O -0.0174(3) 0.4069(4) 0.1182(3)
O1 O 0.1182(3) 0.4069(4) -0.0174(3)
O1 O -0.0174(3) 0.3818(3) 0.0931(4)
O2 O 0.0695(3) 0.4051(4) -0.0174(3)
O2 O -0.0174(3) 0.4305(3) 0.0949(4)
O2 O 0.0949(4) 0.4305(3) -0.0174(3)
O2 O -0.0174(3) 0.4051(4) 0.0695(3)
O1 O 0.0931(4) 0.6182(3) 1.0174(3)
O1 O -0.0174(3) 0.5931(4) 0.8818(3)
O1 O 0.1182(3) 0.5931(4) 1.0174(3)
O1 O -0.0174(3) 0.6182(3) 0.9069(4)
O2 O 0.0695(3) 0.5949(4) 1.0174(3)
O2 O -0.0174(3) 0.5695(3) 0.9051(4)
O2 O 0.0949(4) 0.5695(3) 1.0174(3)
O2 O -0.0174(3) 0.5949(4) 0.9305(3)
O1 O 0.9069(4) 0.3818(3) 1.0174(3)
O1 O 1.0174(3) 0.4069(4) 0.8818(3)
O1 O 0.8818(3) 0.4069(4) 1.0174(3)
O1 O 1.0174(3) 0.3818(3) 0.9069(4)
O2 O 0.9305(3) 0.4051(4) 1.0174(3)
O2 O 1.0174(3) 0.4305(3) 0.9051(4)
O2 O 0.9051(4) 0.4305(3) 1.0174(3)
O2 O 1.0174(3) 0.4051(4) 0.9305(3)
O1 O 0.1182(3) 0.4069(4) 1.0174(3)
O1 O -0.0174(3) 0.3818(3) 0.9069(4)
O1 O 0.0931(4) 0.3818(3) 1.0174(3)
O1 O -0.0174(3) 0.4069(4) 0.8818(3)
O2 O 0.0949(4) 0.4305(3) 1.0174(3)
O2 O -0.0174(3) 0.4051(4) 0.9305(3)
O2 O 0.0695(3) 0.4051(4) 1.0174(3)
O2 O -0.0174(3) 0.4305(3) 0.9051(4)
O1 O 0.8818(3) 0.5931(4) 1.0174(3)
O1 O 1.0174(3) 0.6182(3) 0.9069(4)
O1 O 0.9069(4) 0.6182(3) 1.0174(3)
O1 O 1.0174(3) 0.5931(4) 0.8818(3)
O2 O 0.9051(4) 0.5695(3) 1.0174(3)
O2 O 1.0174(3) 0.5949(4) 0.9305(3)
O2 O 0.9305(3) 0.5949(4) 1.0174(3)
O2 O 1.0174(3) 0.5695(3) 0.9051(4)
O1 O 0.1182(3) 0.5931(4) -0.0174(3)
O1 O -0.0174(3) 0.6182(3) 0.0931(4)
O1 O 0.0931(4) 0.6182(3) -0.0174(3)
O1 O -0.0174(3) 0.5931(4) 0.1182(3)
O2 O 0.0949(4) 0.5695(3) -0.0174(3)
O2 O -0.0174(3) 0.5949(4) 0.0695(3)
O2 O 0.0695(3) 0.5949(4) -0.0174(3)
O2 O -0.0174(3) 0.5695(3) 0.0949(4)
O1 O 0.8818(3) 0.4069(4) -0.0174(3)
O1 O 1.0174(3) 0.3818(3) 0.0931(4)
O1 O 0.9069(4) 0.3818(3) -0.0174(3)
O1 O 1.0174(3) 0.4069(4) 0.1182(3)
O2 O 0.9051(4) 0.4305(3) -0.0174(3)
O2 O 1.0174(3) 0.4051(4) 0.0695(3)
O2 O 0.9305(3) 0.4051(4) -0.0174(3)
O2 O 1.0174(3) 0.4305(3) 0.0949(4)
O1 O 0.8818(3) -0.0174(3) 0.5931(4)
O1 O 1.0174(3) 0.0931(4) 0.6182(3)
O1 O 1.0174(3) 0.1182(3) 0.5931(4)
O1 O 0.9069(4) -0.0174(3) 0.6182(3)
O2 O 0.9051(4) -0.0174(3) 0.5695(3)
O2 O 1.0174(3) 0.0695(3) 0.5949(4)
O2 O 1.0174(3) 0.0949(4) 0.5695(3)
O2 O 0.9305(3) -0.0174(3) 0.5949(4)
O1 O 0.1182(3) 1.0174(3) 0.5931(4)
O1 O -0.0174(3) 0.9069(4) 0.6182(3)
O1 O -0.0174(3) 0.8818(3) 0.5931(4)
O1 O 0.0931(4) 1.0174(3) 0.6182(3)
O2 O 0.0949(4) 1.0174(3) 0.5695(3)
O2 O -0.0174(3) 0.9305(3) 0.5949(4)
O2 O -0.0174(3) 0.9051(4) 0.5695(3)
O2 O 0.0695(3) 1.0174(3) 0.5949(4)
O1 O 0.1182(3) -0.0174(3) 0.4069(4)
O1 O -0.0174(3) 0.0931(4) 0.3818(3)
O1 O -0.0174(3) 0.1182(3) 0.4069(4)
O1 O 0.0931(4) -0.0174(3) 0.3818(3)
O2 O 0.0949(4) -0.0174(3) 0.4305(3)
O2 O -0.0174(3) 0.0695(3) 0.4051(4)
O2 O -0.0174(3) 0.0949(4) 0.4305(3)
O2 O 0.0695(3) -0.0174(3) 0.4051(4)
O1 O 0.8818(3) 1.0174(3) 0.4069(4)
O1 O 1.0174(3) 0.9069(4) 0.3818(3)
O1 O 1.0174(3) 0.8818(3) 0.4069(4)
O1 O 0.9069(4) 1.0174(3) 0.3818(3)
O2 O 0.9051(4) 1.0174(3) 0.4305(3)
O2 O 1.0174(3) 0.9305(3) 0.4051(4)
O2 O 1.0174(3) 0.9051(4) 0.4305(3)
O2 O 0.9305(3) 1.0174(3) 0.4051(4)
O1 O -0.0174(3) 0.8818(3) 0.4069(4)
O1 O 0.0931(4) 1.0174(3) 0.3818(3)
O1 O 0.1182(3) 1.0174(3) 0.4069(4)
O1 O -0.0174(3) 0.9069(4) 0.3818(3)
O2 O -0.0174(3) 0.9051(4) 0.4305(3)
O2 O 0.0695(3) 1.0174(3) 0.4051(4)
O2 O 0.0949(4) 1.0174(3) 0.4305(3)
O2 O -0.0174(3) 0.9305(3) 0.4051(4)
O1 O 1.0174(3) 0.1182(3) 0.4069(4)
O1 O 0.9069(4) -0.0174(3) 0.3818(3)
O1 O 0.8818(3) -0.0174(3) 0.4069(4)
O1 O 1.0174(3) 0.0931(4) 0.3818(3)
O2 O 1.0174(3) 0.0949(4) 0.4305(3)
O2 O 0.9305(3) -0.0174(3) 0.4051(4)
O2 O 0.9051(4) -0.0174(3) 0.4305(3)
O2 O 1.0174(3) 0.0695(3) 0.4051(4)
O1 O -0.0174(3) 0.1182(3) 0.5931(4)
O1 O 0.0931(4) -0.0174(3) 0.6182(3)
O1 O 0.1182(3) -0.0174(3) 0.5931(4)
O1 O -0.0174(3) 0.0931(4) 0.6182(3)
O2 O -0.0174(3) 0.0949(4) 0.5695(3)
O2 O 0.0695(3) -0.0174(3) 0.5949(4)
O2 O 0.0949(4) -0.0174(3) 0.5695(3)
O2 O -0.0174(3) 0.0695(3) 0.5949(4)
O1 O 1.0174(3) 0.8818(3) 0.5931(4)
O1 O 0.9069(4) 1.0174(3) 0.6182(3)
O1 O 0.8818(3) 1.0174(3) 0.5931(4)
O1 O 1.0174(3) 0.9069(4) 0.6182(3)
O2 O 1.0174(3) 0.9051(4) 0.5695(3)
O2 O 0.9305(3) 1.0174(3) 0.5949(4)
O2 O 0.9051(4) 1.0174(3) 0.5695(3)
O2 O 1.0174(3) 0.9305(3) 0.5949(4)

#END
