data_crystal

_cell_length_a    18.54900
_cell_length_b    18.54900
_cell_length_c    18.54900
_cell_angle_alpha 90.00000
_cell_angle_beta  90.00000
_cell_angle_gamma 90.00000

_space_group_name_Hall 'P 1'
_space_group_name_H-M_alt 'P 1'

loop_
_symmetry_equiv_pos_as_xyz
 'x,y,z'

loop_
_atom_site_label
_atom_site_type_symbol
_atom_site_fract_x
_atom_site_fract_y
_atom_site_fract_z
Ni         Ni      0.00000   0.61885   0.50000
Ni         Ni      0.00000   0.38115   0.50000
Ni         Ni      0.50000   0.00000   0.61885
Ni         Ni      0.50000   0.00000   0.38115
Ni         Ni      0.61885   0.50000   0.00000
Ni         Ni      0.38115   0.50000   0.00000
Ni         Ni      0.61885   0.00000   0.50000
Ni         Ni      0.38115   0.00000   0.50000
Ni         Ni      0.00000   0.50000   0.38115
Ni         Ni      0.00000   0.50000   0.61885
Ni         Ni      0.50000   0.61885   0.00000
Ni         Ni      0.50000   0.38115   0.00000
H          H       0.85450   0.71315   0.56038
H          H       0.14550   0.28685   0.56038
H          H       0.14550   0.71315   0.43962
H          H       0.85450   0.28685   0.43962
H          H       0.56038   0.85450   0.71315
H          H       0.56038   0.14550   0.28685
H          H       0.43962   0.14550   0.71315
H          H       0.43962   0.85450   0.28685
H          H       0.71315   0.56038   0.85450
H          H       0.28685   0.56038   0.14550
H          H       0.71315   0.43962   0.14550
H          H       0.28685   0.43962   0.85450
H          H       0.71315   0.85450   0.43962
H          H       0.28685   0.14550   0.43962
H          H       0.71315   0.14550   0.56038
H          H       0.28685   0.85450   0.56038
H          H       0.85450   0.56038   0.28685
H          H       0.14550   0.56038   0.71315
H          H       0.14550   0.43962   0.28685
H          H       0.85450   0.43962   0.71315
H          H       0.56038   0.71315   0.14550
H          H       0.56038   0.28685   0.85450
H          H       0.43962   0.71315   0.85450
H          H       0.43962   0.28685   0.14550
H          H       0.14550   0.28685   0.43962
H          H       0.85450   0.71315   0.43962
H          H       0.85450   0.28685   0.56038
H          H       0.14550   0.71315   0.56038
H          H       0.43962   0.14550   0.28685
H          H       0.43962   0.85450   0.71315
H          H       0.56038   0.85450   0.28685
H          H       0.56038   0.14550   0.71315
H          H       0.28685   0.43962   0.14550
H          H       0.71315   0.43962   0.85450
H          H       0.28685   0.56038   0.85450
H          H       0.71315   0.56038   0.14550
H          H       0.28685   0.14550   0.56038
H          H       0.71315   0.85450   0.56038
H          H       0.28685   0.85450   0.43962
H          H       0.71315   0.14550   0.43962
H          H       0.14550   0.43962   0.71315
H          H       0.85450   0.43962   0.28685
H          H       0.85450   0.56038   0.71315
H          H       0.14550   0.56038   0.28685
H          H       0.43962   0.28685   0.85450
H          H       0.43962   0.71315   0.14550
H          H       0.56038   0.28685   0.14550
H          H       0.56038   0.71315   0.85450
H          H       0.77211   0.77211   0.61817
H          H       0.22788   0.22788   0.61817
H          H       0.22788   0.77211   0.38183
H          H       0.77211   0.22788   0.38183
H          H       0.61817   0.77211   0.77211
H          H       0.61817   0.22788   0.22788
H          H       0.38183   0.22788   0.77211
H          H       0.38183   0.77211   0.22788
H          H       0.77211   0.61817   0.77211
H          H       0.22788   0.61817   0.22788
H          H       0.77211   0.38183   0.22788
H          H       0.22788   0.38183   0.77211
H          H       0.77211   0.77211   0.38183
H          H       0.22788   0.22788   0.38183
H          H       0.77211   0.22788   0.61817
H          H       0.22788   0.77211   0.61817
H          H       0.77211   0.61817   0.22788
H          H       0.22788   0.61817   0.77211
H          H       0.22788   0.38183   0.22788
H          H       0.77211   0.38183   0.77211
H          H       0.61817   0.77211   0.22788
H          H       0.61817   0.22788   0.77211
H          H       0.38183   0.77211   0.77211
H          H       0.38183   0.22788   0.22788
C          C       0.86569   0.67080   0.58691
C          C       0.13431   0.32920   0.58691
C          C       0.13431   0.67080   0.41309
C          C       0.86569   0.32920   0.41309
C          C       0.58691   0.86569   0.67080
C          C       0.58691   0.13431   0.32920
C          C       0.41309   0.13431   0.67080
C          C       0.41309   0.86569   0.32920
C          C       0.67080   0.58691   0.86569
C          C       0.32920   0.58691   0.13431
C          C       0.67080   0.41309   0.13431
C          C       0.32920   0.41309   0.86569
C          C       0.67080   0.86569   0.41309
C          C       0.32920   0.13431   0.41309
C          C       0.67080   0.13431   0.58691
C          C       0.32920   0.86569   0.58691
C          C       0.86569   0.58691   0.32920
C          C       0.13431   0.58691   0.67080
C          C       0.13431   0.41309   0.32920
C          C       0.86569   0.41309   0.67080
C          C       0.58691   0.67080   0.13431
C          C       0.58691   0.32920   0.86569
C          C       0.41309   0.67080   0.86569
C          C       0.41309   0.32920   0.13431
C          C       0.13431   0.32920   0.41309
C          C       0.86569   0.67080   0.41309
C          C       0.86569   0.32920   0.58691
C          C       0.13431   0.67080   0.58691
C          C       0.41309   0.13431   0.32920
C          C       0.41309   0.86569   0.67080
C          C       0.58691   0.86569   0.32920
C          C       0.58691   0.13431   0.67080
C          C       0.32920   0.41309   0.13431
C          C       0.67080   0.41309   0.86569
C          C       0.32920   0.58691   0.86569
C          C       0.67080   0.58691   0.13431
C          C       0.32920   0.13431   0.58691
C          C       0.67080   0.86569   0.58691
C          C       0.32920   0.86569   0.41309
C          C       0.67080   0.13431   0.41309
C          C       0.13431   0.41309   0.67080
C          C       0.86569   0.41309   0.32920
C          C       0.86569   0.58691   0.67080
C          C       0.13431   0.58691   0.32920
C          C       0.41309   0.32920   0.86569
C          C       0.41309   0.67080   0.13431
C          C       0.58691   0.32920   0.13431
C          C       0.58691   0.67080   0.86569
C          C       0.77994   0.68949   0.68949
C          C       0.83522   0.65040   0.65040
C          C       0.22006   0.31051   0.68949
C          C       0.16478   0.34960   0.65040
C          C       0.22006   0.68949   0.31051
C          C       0.16478   0.65040   0.34960
C          C       0.77994   0.31051   0.31051
C          C       0.83522   0.34960   0.34960
C          C       0.68949   0.77994   0.68949
C          C       0.65040   0.83522   0.65040
C          C       0.68949   0.22006   0.31051
C          C       0.65040   0.16478   0.34960
C          C       0.31051   0.22006   0.68949
C          C       0.34960   0.16478   0.65040
C          C       0.31051   0.77994   0.31051
C          C       0.34960   0.83522   0.34960
C          C       0.68949   0.68949   0.77994
C          C       0.65040   0.65040   0.83522
C          C       0.31051   0.68949   0.22006
C          C       0.34960   0.65040   0.16478
C          C       0.68949   0.31051   0.22006
C          C       0.65040   0.34960   0.16478
C          C       0.31051   0.31051   0.77994
C          C       0.34960   0.34960   0.83522
C          C       0.68949   0.77994   0.31051
C          C       0.65040   0.83522   0.34960
C          C       0.31051   0.22006   0.31051
C          C       0.34960   0.16478   0.34960
C          C       0.68949   0.22006   0.68949
C          C       0.65040   0.16478   0.65040
C          C       0.31051   0.77994   0.68949
C          C       0.34960   0.83522   0.65040
C          C       0.77994   0.68949   0.31051
C          C       0.83522   0.65040   0.34960
C          C       0.22006   0.68949   0.68949
C          C       0.16478   0.65040   0.65040
C          C       0.22006   0.31051   0.31051
C          C       0.16478   0.34960   0.34960
C          C       0.77994   0.31051   0.68949
C          C       0.83522   0.34960   0.65040
C          C       0.68949   0.68949   0.22006
C          C       0.65040   0.65040   0.16478
C          C       0.68949   0.31051   0.77994
C          C       0.65040   0.34960   0.83522
C          C       0.31051   0.68949   0.77994
C          C       0.34960   0.65040   0.83522
C          C       0.31051   0.31051   0.22006
C          C       0.34960   0.34960   0.16478
C          C       0.75378   0.75378   0.66233
C          C       0.24622   0.24622   0.66233
C          C       0.24622   0.75378   0.33767
C          C       0.75378   0.24622   0.33767
C          C       0.66233   0.75378   0.75378
C          C       0.66233   0.24622   0.24622
C          C       0.33767   0.24622   0.75378
C          C       0.33767   0.75378   0.24622
C          C       0.75378   0.66233   0.75378
C          C       0.24622   0.66233   0.24622
C          C       0.75378   0.33767   0.24622
C          C       0.24622   0.33767   0.75378
C          C       0.75378   0.75378   0.33767
C          C       0.24622   0.24622   0.33767
C          C       0.75378   0.24622   0.66233
C          C       0.24622   0.75378   0.66233
C          C       0.75378   0.66233   0.24622
C          C       0.24622   0.66233   0.75378
C          C       0.24622   0.33767   0.24622
C          C       0.75378   0.33767   0.75378
C          C       0.66233   0.75378   0.24622
C          C       0.66233   0.24622   0.75378
C          C       0.33767   0.75378   0.75378
C          C       0.33767   0.24622   0.24622
N          N       0.91500   0.61991   0.56807
N          N       0.08500   0.38009   0.56807
N          N       0.08500   0.61991   0.43193
N          N       0.91500   0.38009   0.43193
N          N       0.56807   0.91500   0.61991
N          N       0.56807   0.08500   0.38009
N          N       0.43193   0.08500   0.61991
N          N       0.43193   0.91500   0.38009
N          N       0.61991   0.56807   0.91500
N          N       0.38009   0.56807   0.08500
N          N       0.61991   0.43193   0.08500
N          N       0.38009   0.43193   0.91500
N          N       0.61991   0.91500   0.43193
N          N       0.38009   0.08500   0.43193
N          N       0.61991   0.08500   0.56807
N          N       0.38009   0.91500   0.56807
N          N       0.91500   0.56807   0.38009
N          N       0.08500   0.56807   0.61991
N          N       0.08500   0.43193   0.38009
N          N       0.91500   0.43193   0.61991
N          N       0.56807   0.61991   0.08500
N          N       0.56807   0.38009   0.91500
N          N       0.43193   0.61991   0.91500
N          N       0.43193   0.38009   0.08500
N          N       0.08500   0.38009   0.43193
N          N       0.91500   0.61991   0.43193
N          N       0.91500   0.38009   0.56807
N          N       0.08500   0.61991   0.56807
N          N       0.43193   0.08500   0.38009
N          N       0.43193   0.91500   0.61991
N          N       0.56807   0.91500   0.38009
N          N       0.56807   0.08500   0.61991
N          N       0.38009   0.43193   0.08500
N          N       0.61991   0.43193   0.91500
N          N       0.38009   0.56807   0.91500
N          N       0.61991   0.56807   0.08500
N          N       0.38009   0.08500   0.56807
N          N       0.61991   0.91500   0.56807
N          N       0.38009   0.91500   0.43193
N          N       0.61991   0.08500   0.43193
N          N       0.08500   0.43193   0.61991
N          N       0.91500   0.43193   0.38009
N          N       0.91500   0.56807   0.61991
N          N       0.08500   0.56807   0.38009
N          N       0.43193   0.38009   0.91500
N          N       0.43193   0.61991   0.08500
N          N       0.56807   0.38009   0.08500
N          N       0.56807   0.61991   0.91500
