data_crystal
 
_cell_length_a    20.63620
_cell_length_b    20.63620
_cell_length_c    20.63620
_cell_angle_alpha 60.00000
_cell_angle_beta  60.00000
_cell_angle_gamma 60.00000
 
_symmetry_space_group_name_Hall 'P 1'
_symmetry_space_group_name_H-M  'P 1'
 
loop_
_symmetry_equiv_pos_as_xyz
 'x,y,z' 
 
loop_
_atom_site_label
_atom_site_type_symbol
_atom_site_fract_x
_atom_site_fract_y
_atom_site_fract_z
_atom_site_charge
Zn         Zn      0.21160   0.36518   0.21161   0.0000000000
Zn         Zn      0.36517   0.21161   0.21161   0.0000000000
Zn         Zn      0.21160   0.21161   0.21161   0.0000000000
Zn         Zn      0.21160   0.21161   0.36518   0.0000000000
Zn         Zn      0.63483   0.78839   0.78839   0.0000000000
Zn         Zn      0.78840   0.63482   0.78839   0.0000000000
Zn         Zn      0.78840   0.78839   0.78839   0.0000000000
Zn         Zn      0.78840   0.78839   0.63482   0.0000000000
H          H       0.05700   0.53740   0.05700   0.0000000000
H          H       0.53740   0.05700   0.34860   0.0000000000
H          H       0.05700   0.05700   0.53740   0.0000000000
H          H       0.34860   0.53740   0.05700   0.0000000000
H          H       0.34860   0.05700   0.05700   0.0000000000
H          H       0.05700   0.34860   0.53740   0.0000000000
H          H       0.65140   0.94300   0.94300   0.0000000000
H          H       0.94300   0.65140   0.46260   0.0000000000
H          H       0.94300   0.94300   0.46260   0.0000000000
H          H       0.65140   0.46260   0.94300   0.0000000000
H          H       0.46260   0.94300   0.65140   0.0000000000
H          H       0.94300   0.46260   0.94300   0.0000000000
S          S       0.04740   0.40120   0.04740   0.0000000000
S          S       0.40120   0.04740   0.50400   0.0000000000
C          C       0.04740   0.50400   0.04740   0.0000000000
C          C       0.50400   0.04740   0.40120   0.0000000000
C          C       0.04740   0.04740   0.50400   0.0000000000
C          C       0.40120   0.50400   0.04740   0.0000000000
S          S       0.04740   0.04740   0.40120   0.0000000000
S          S       0.50400   0.40120   0.04740   0.0000000000
S          S       0.04740   0.50400   0.40120   0.0000000000
C          C       0.40120   0.04740   0.04740   0.0000000000
C          C       0.04740   0.40120   0.50400   0.0000000000
S          S       0.50400   0.04740   0.04740   0.0000000000
C          C       0.59880   0.95260   0.95260   0.0000000000
C          C       0.95260   0.59880   0.49600   0.0000000000
S          S       0.49600   0.95260   0.95260   0.0000000000
S          S       0.95260   0.49600   0.59880   0.0000000000
C          C       0.95260   0.95260   0.49600   0.0000000000
S          S       0.49600   0.59880   0.95260   0.0000000000
S          S       0.95260   0.95260   0.59880   0.0000000000
C          C       0.59880   0.49600   0.95260   0.0000000000
C          C       0.49600   0.95260   0.59880   0.0000000000
S          S       0.95260   0.59880   0.95260   0.0000000000
S          S       0.59880   0.95260   0.49600   0.0000000000
C          C       0.95260   0.49600   0.95260   0.0000000000
C          C       0.12824   0.37176   0.12824   0.0000000000
C          C       0.07711   0.42289   0.07711   0.0000000000
C          C       0.37176   0.12824   0.37176   0.0000000000
C          C       0.42289   0.07711   0.42289   0.0000000000
C          C       0.12824   0.12824   0.37176   0.0000000000
C          C       0.07711   0.07711   0.42289   0.0000000000
C          C       0.37176   0.37176   0.12824   0.0000000000
C          C       0.42289   0.42289   0.07711   0.0000000000
C          C       0.12824   0.37176   0.37176   0.0000000000
C          C       0.07711   0.42289   0.42289   0.0000000000
C          C       0.37176   0.12824   0.12824   0.0000000000
C          C       0.42289   0.07711   0.07711   0.0000000000
C          C       0.62824   0.87176   0.87176   0.0000000000
C          C       0.57711   0.92289   0.92289   0.0000000000
C          C       0.87176   0.62824   0.62824   0.0000000000
C          C       0.92289   0.57711   0.57711   0.0000000000
C          C       0.87176   0.87176   0.62824   0.0000000000
C          C       0.92289   0.92289   0.57711   0.0000000000
C          C       0.62824   0.62824   0.87176   0.0000000000
C          C       0.57711   0.57711   0.92289   0.0000000000
C          C       0.62824   0.87176   0.62824   0.0000000000
C          C       0.57711   0.92289   0.57711   0.0000000000
C          C       0.87176   0.62824   0.87176   0.0000000000
C          C       0.92289   0.57711   0.92289   0.0000000000
C          C      -0.00000   0.46688   0.00000   0.0000000000
C          C       0.46688   0.00000   0.53312   0.0000000000
C          C      -0.00000   0.53312   0.00000   0.0000000000
C          C       0.53312   0.00000   0.46688   0.0000000000
C          C       0.46688   0.53312   0.00000   0.0000000000
C          C      -0.00000   0.00000   0.46688   0.0000000000
C          C       0.53312   0.46688   0.00000   0.0000000000
C          C       0.00191   0.53077   0.46499   0.0000000000
C          C       0.46688   0.00000   0.00000   0.0000000000
C          C       0.53312   0.00000   0.00000   0.0000000000
O          O       0.25000   0.25000   0.25000   0.0000000000
O          O       0.75000   0.75000   0.75000   0.0000000000
O          O       0.14684   0.40916   0.14684   0.0000000000
O          O       0.40916   0.14684   0.29716   0.0000000000
O          O       0.14684   0.29716   0.14684   0.0000000000
O          O       0.29716   0.14684   0.40916   0.0000000000
O          O       0.14684   0.14684   0.29716   0.0000000000
O          O       0.40916   0.29716   0.14684   0.0000000000
O          O       0.14684   0.14684   0.40916   0.0000000000
O          O       0.29716   0.40916   0.14684   0.0000000000
O          O       0.14684   0.29716   0.40916   0.0000000000
O          O       0.40916   0.14684   0.14684   0.0000000000
O          O       0.14684   0.40916   0.29716   0.0000000000
O          O       0.29716   0.14684   0.14684   0.0000000000
O          O       0.59084   0.85316   0.85316   0.0000000000
O          O       0.85316   0.59084   0.70284   0.0000000000
O          O       0.70284   0.85316   0.85316   0.0000000000
O          O       0.85316   0.70284   0.59084   0.0000000000
O          O       0.85316   0.85316   0.70284   0.0000000000
O          O       0.70284   0.59084   0.85316   0.0000000000
O          O       0.85316   0.85316   0.59084   0.0000000000
O          O       0.59084   0.70284   0.85316   0.0000000000
O          O       0.70284   0.85316   0.59084   0.0000000000
O          O       0.85316   0.59084   0.85316   0.0000000000
O          O       0.59084   0.85316   0.70284   0.0000000000
O          O       0.85316   0.70284   0.85316   0.0000000000
C          C       0.00838   0.46793   0.52335   0.0000000000
C          C       0.00012   0.00114   0.53497   0.0000000000
