data_image0
_chemical_formula_structural       C4H4C4H4C4H4C4H4C4H4C4H4C4H4C4H4C4H4C4H4C4H4C4H4N32Zn8
_chemical_formula_sum              "C48 H48 N32 Zn8"
_cell_length_a       9.7405
_cell_length_b       15.266
_cell_length_c       14.936
_cell_angle_alpha    90
_cell_angle_beta     98.62
_cell_angle_gamma    90

_space_group_name_H-M_alt    "P 1"
_space_group_IT_number       1

loop_
  _space_group_symop_operation_xyz
  'x, y, z'

loop_
  _atom_site_type_symbol
  _atom_site_label
  _atom_site_symmetry_multiplicity
  _atom_site_fract_x
  _atom_site_fract_y
  _atom_site_fract_z
  _atom_site_occupancy
  C   C1        1.0  0.53008  0.90801  0.84328  1.0000
  C   C2        1.0  0.96992  0.40801  0.65672  1.0000
  C   C3        1.0  0.46992  0.09199  0.15672  1.0000
  C   C4        1.0  0.03008  0.59199  0.34328  1.0000
  H   H1        1.0  0.51660  0.93180  0.89940  1.0000
  H   H2        1.0  0.98340  0.43180  0.60060  1.0000
  H   H3        1.0  0.48340  0.06820  0.10060  1.0000
  H   H4        1.0  0.01660  0.56820  0.39940  1.0000
  C   C5        1.0  0.54922  0.89866  0.70551  1.0000
  C   C6        1.0  0.95078  0.39866  0.79449  1.0000
  C   C7        1.0  0.45078  0.10134  0.29449  1.0000
  C   C8        1.0  0.04922  0.60134  0.20551  1.0000
  H   H5        1.0  0.55240  0.91190  0.64440  1.0000
  H   H6        1.0  0.94760  0.41190  0.85560  1.0000
  H   H7        1.0  0.44760  0.08810  0.35560  1.0000
  H   H8        1.0  0.05240  0.58810  0.14440  1.0000
  C   C9        1.0  0.57370  0.81934  0.74432  1.0000
  C   C10       1.0  0.92630  0.31934  0.75568  1.0000
  C   C11       1.0  0.42630  0.18066  0.25568  1.0000
  C   C12       1.0  0.07370  0.68066  0.24432  1.0000
  H   H9        1.0  0.59620  0.76830  0.71450  1.0000
  H   H10       1.0  0.90380  0.26830  0.78550  1.0000
  H   H11       1.0  0.40380  0.23170  0.28550  1.0000
  H   H12       1.0  0.09620  0.73170  0.21450  1.0000
  C   C13       1.0  0.88930  0.68162  0.98180  1.0000
  C   C14       1.0  0.61070  0.18162  0.51820  1.0000
  C   C15       1.0  0.11070  0.31838  0.01820  1.0000
  C   C16       1.0  0.38930  0.81838  0.48180  1.0000
  H   H13       1.0  0.89640  0.70540  0.04040  1.0000
  H   H14       1.0  0.60360  0.20540  0.45960  1.0000
  H   H15       1.0  0.10360  0.29460  0.95960  1.0000
  H   H16       1.0  0.39640  0.79460  0.54040  1.0000
  C   C17       1.0  0.81368  0.63613  0.85207  1.0000
  C   C18       1.0  0.68632  0.13613  0.64793  1.0000
  C   C19       1.0  0.18632  0.36387  0.14793  1.0000
  C   C20       1.0  0.31368  0.86387  0.35207  1.0000
  H   H17       1.0  0.75170  0.62230  0.79950  1.0000
  H   H18       1.0  0.74830  0.12230  0.70050  1.0000
  H   H19       1.0  0.24830  0.37770  0.20050  1.0000
  H   H20       1.0  0.25170  0.87770  0.29950  1.0000
  C   C21       1.0  0.45646  0.54530  0.88375  1.0000
  C   C22       1.0  0.04354  0.04530  0.61625  1.0000
  C   C23       1.0  0.54354  0.45470  0.11625  1.0000
  C   C24       1.0  0.95646  0.95470  0.38375  1.0000
  H   H21       1.0  0.53330  0.51420  0.91350  1.0000
  H   H22       1.0  0.96670  0.01420  0.58650  1.0000
  H   H23       1.0  0.46670  0.48580  0.08650  1.0000
  H   H24       1.0  0.03330  0.98580  0.41350  1.0000
  C   C25       1.0  0.44410  0.71842  0.08382  1.0000
  C   C26       1.0  0.05590  0.21842  0.41618  1.0000
  C   C27       1.0  0.55590  0.28158  0.91618  1.0000
  C   C28       1.0  0.94410  0.78158  0.58382  1.0000
  H   H25       1.0  0.39740  0.66610  0.06540  1.0000
  H   H26       1.0  0.10260  0.16610  0.43460  1.0000
  H   H27       1.0  0.60260  0.33390  0.93460  1.0000
  H   H28       1.0  0.89740  0.83390  0.56540  1.0000
  C   C29       1.0  0.16800  0.01015  0.65047  1.0000
  C   C30       1.0  0.33200  0.51015  0.84953  1.0000
  C   C31       1.0  0.83200  0.98985  0.34953  1.0000
  C   C32       1.0  0.66800  0.48985  0.15047  1.0000
  H   H29       1.0  0.19290  0.95090  0.64730  1.0000
  H   H30       1.0  0.30710  0.45090  0.85270  1.0000
  H   H31       1.0  0.80710  0.04910  0.35270  1.0000
  H   H32       1.0  0.69290  0.54910  0.14730  1.0000
  C   C33       1.0  0.17558  0.14622  0.67618  1.0000
  C   C34       1.0  0.32442  0.64622  0.82382  1.0000
  C   C35       1.0  0.82442  0.85378  0.32382  1.0000
  C   C36       1.0  0.67558  0.35378  0.17618  1.0000
  H   H33       1.0  0.20850  0.20200  0.69560  1.0000
  H   H34       1.0  0.29150  0.70200  0.80440  1.0000
  H   H35       1.0  0.79150  0.79800  0.30440  1.0000
  H   H36       1.0  0.70850  0.29800  0.19560  1.0000
  C   C37       1.0  0.50403  0.14793  0.55661  1.0000
  C   C38       1.0  0.99597  0.64793  0.94339  1.0000
  C   C39       1.0  0.49597  0.85207  0.44339  1.0000
  C   C40       1.0  0.00403  0.35207  0.05661  1.0000
  H   H37       1.0  0.41060  0.14610  0.52930  1.0000
  H   H38       1.0  0.08940  0.64610  0.97070  1.0000
  H   H39       1.0  0.58940  0.85390  0.47070  1.0000
  H   H40       1.0  0.91060  0.35390  0.02930  1.0000
  C   C41       1.0  0.42709  0.17049  0.91013  1.0000
  C   C42       1.0  0.07291  0.67049  0.58987  1.0000
  C   C43       1.0  0.57291  0.82951  0.08987  1.0000
  C   C44       1.0  0.92709  0.32951  0.41013  1.0000
  H   H41       1.0  0.36260  0.12910  0.92490  1.0000
  H   H42       1.0  0.13740  0.62910  0.57510  1.0000
  H   H43       1.0  0.63740  0.87090  0.07510  1.0000
  H   H44       1.0  0.86260  0.37090  0.42490  1.0000
  C   C45       1.0  0.56909  0.23624  0.84016  1.0000
  C   C46       1.0  0.93091  0.73624  0.65984  1.0000
  C   C47       1.0  0.43091  0.76376  0.15984  1.0000
  C   C48       1.0  0.06909  0.26376  0.34016  1.0000
  H   H45       1.0  0.62560  0.25200  0.79700  1.0000
  H   H46       1.0  0.87440  0.75200  0.70300  1.0000
  H   H47       1.0  0.37440  0.74800  0.20300  1.0000
  H   H48       1.0  0.12560  0.24800  0.29700  1.0000
  N   N1        1.0  0.56081  0.82495  0.83356  1.0000
  N   N2        1.0  0.93919  0.32495  0.66644  1.0000
  N   N3        1.0  0.43919  0.17505  0.16644  1.0000
  N   N4        1.0  0.06081  0.67505  0.33356  1.0000
  N   N5        1.0  0.51939  0.95578  0.76862  1.0000
  N   N6        1.0  0.98061  0.45578  0.73138  1.0000
  N   N7        1.0  0.48061  0.04422  0.23138  1.0000
  N   N8        1.0  0.01939  0.54422  0.26862  1.0000
  N   N9        1.0  0.77228  0.67526  0.92215  1.0000
  N   N10       1.0  0.72772  0.17526  0.57785  1.0000
  N   N11       1.0  0.22772  0.32474  0.07785  1.0000
  N   N12       1.0  0.27228  0.82474  0.42215  1.0000
  N   N13       1.0  0.45216  0.63279  0.86801  1.0000
  N   N14       1.0  0.04784  0.13279  0.63199  1.0000
  N   N15       1.0  0.54784  0.36721  0.13199  1.0000
  N   N16       1.0  0.95216  0.86721  0.36801  1.0000
  N   N17       1.0  0.53449  0.75994  0.03867  1.0000
  N   N18       1.0  0.96551  0.25994  0.46133  1.0000
  N   N19       1.0  0.46551  0.24006  0.96133  1.0000
  N   N20       1.0  0.03449  0.74006  0.53867  1.0000
  N   N21       1.0  0.25111  0.07550  0.69024  1.0000
  N   N22       1.0  0.24889  0.57550  0.80976  1.0000
  N   N23       1.0  0.74889  0.92450  0.30976  1.0000
  N   N24       1.0  0.75111  0.42450  0.19024  1.0000
  N   N25       1.0  0.48714  0.16439  0.83677  1.0000
  N   N26       1.0  0.01286  0.66439  0.66323  1.0000
  N   N27       1.0  0.51286  0.83561  0.16323  1.0000
  N   N28       1.0  0.98714  0.33561  0.33677  1.0000
  N   N29       1.0  0.55330  0.11771  0.63990  1.0000
  N   N30       1.0  0.94670  0.61771  0.86010  1.0000
  N   N31       1.0  0.44670  0.88229  0.36010  1.0000
  N   N32       1.0  0.05330  0.38229  0.13990  1.0000
  Zn  Zn1       1.0  0.45317  0.07607  0.73898  1.0000
  Zn  Zn2       1.0  0.04683  0.57607  0.76102  1.0000
  Zn  Zn3       1.0  0.54683  0.92393  0.26102  1.0000
  Zn  Zn4       1.0  0.95317  0.42393  0.23898  1.0000
  Zn  Zn5       1.0  0.58453  0.72605  0.92052  1.0000
  Zn  Zn6       1.0  0.91547  0.22605  0.57948  1.0000
  Zn  Zn7       1.0  0.41547  0.27395  0.07948  1.0000
  Zn  Zn8       1.0  0.08453  0.77395  0.42052  1.0000
