data_image0
_chemical_formula_structural       In16Zn24N192C288H288
_chemical_formula_sum              "In16 Zn24 N192 C288 H288"
_cell_length_a       21.9619
_cell_length_b       21.9619
_cell_length_c       21.9619
_cell_angle_alpha    90
_cell_angle_beta     90
_cell_angle_gamma    90

_space_group_name_H-M_alt    "P 1"
_space_group_IT_number       1

loop_
  _space_group_symop_operation_xyz
  'x, y, z'

loop_
  _atom_site_type_symbol
  _atom_site_label
  _atom_site_symmetry_multiplicity
  _atom_site_fract_x
  _atom_site_fract_y
  _atom_site_fract_z
  _atom_site_occupancy
  In  In1       1.0  0.00000  0.00000  0.00000  1.0000
  In  In2       1.0  0.50000  0.00000  0.50000  1.0000
  In  In3       1.0  0.00000  0.50000  0.50000  1.0000
  In  In4       1.0  0.50000  0.50000  0.00000  1.0000
  In  In5       1.0  0.75000  0.25000  0.25000  1.0000
  In  In6       1.0  0.75000  0.75000  0.75000  1.0000
  In  In7       1.0  0.25000  0.25000  0.75000  1.0000
  In  In8       1.0  0.25000  0.75000  0.25000  1.0000
  In  In9       1.0  0.25000  0.75000  0.75000  1.0000
  In  In10      1.0  0.25000  0.25000  0.25000  1.0000
  In  In11      1.0  0.75000  0.75000  0.25000  1.0000
  In  In12      1.0  0.75000  0.25000  0.75000  1.0000
  In  In13      1.0  0.50000  0.50000  0.50000  1.0000
  In  In14      1.0  0.00000  0.50000  0.00000  1.0000
  In  In15      1.0  0.50000  0.00000  0.00000  1.0000
  In  In16      1.0  0.00000  0.00000  0.50000  1.0000
  Zn  Zn1       1.0  0.75000  0.12500  0.00000  1.0000
  Zn  Zn2       1.0  0.75000  0.87500  0.50000  1.0000
  Zn  Zn3       1.0  0.25000  0.62500  0.50000  1.0000
  Zn  Zn4       1.0  0.25000  0.37500  0.00000  1.0000
  Zn  Zn5       1.0  0.00000  0.75000  0.12500  1.0000
  Zn  Zn6       1.0  0.50000  0.75000  0.87500  1.0000
  Zn  Zn7       1.0  0.50000  0.25000  0.62500  1.0000
  Zn  Zn8       1.0  0.00000  0.25000  0.37500  1.0000
  Zn  Zn9       1.0  0.12500  0.00000  0.75000  1.0000
  Zn  Zn10      1.0  0.87500  0.50000  0.75000  1.0000
  Zn  Zn11      1.0  0.62500  0.50000  0.25000  1.0000
  Zn  Zn12      1.0  0.37500  0.00000  0.25000  1.0000
  Zn  Zn13      1.0  0.87500  0.00000  0.25000  1.0000
  Zn  Zn14      1.0  0.62500  0.00000  0.75000  1.0000
  Zn  Zn15      1.0  0.37500  0.50000  0.75000  1.0000
  Zn  Zn16      1.0  0.12500  0.50000  0.25000  1.0000
  Zn  Zn17      1.0  0.50000  0.25000  0.12500  1.0000
  Zn  Zn18      1.0  0.50000  0.75000  0.37500  1.0000
  Zn  Zn19      1.0  0.00000  0.75000  0.62500  1.0000
  Zn  Zn20      1.0  0.00000  0.25000  0.87500  1.0000
  Zn  Zn21      1.0  0.75000  0.37500  0.50000  1.0000
  Zn  Zn22      1.0  0.25000  0.12500  0.50000  1.0000
  Zn  Zn23      1.0  0.25000  0.87500  0.00000  1.0000
  Zn  Zn24      1.0  0.75000  0.62500  0.00000  1.0000
  N   N1        1.0  0.81821  0.07479  0.96836  1.0000
  N   N2        1.0  0.68179  0.92521  0.46836  1.0000
  N   N3        1.0  0.18179  0.57479  0.53164  1.0000
  N   N4        1.0  0.31821  0.42521  0.03164  1.0000
  N   N5        1.0  0.96836  0.81821  0.07479  1.0000
  N   N6        1.0  0.46836  0.68179  0.92521  1.0000
  N   N7        1.0  0.53164  0.18179  0.57479  1.0000
  N   N8        1.0  0.03164  0.31821  0.42521  1.0000
  N   N9        1.0  0.07479  0.96836  0.81821  1.0000
  N   N10       1.0  0.92521  0.46836  0.68179  1.0000
  N   N11       1.0  0.57479  0.53164  0.18179  1.0000
  N   N12       1.0  0.42521  0.03164  0.31821  1.0000
  N   N13       1.0  0.82479  0.06821  0.28164  1.0000
  N   N14       1.0  0.67521  0.93179  0.78164  1.0000
  N   N15       1.0  0.32479  0.43179  0.71836  1.0000
  N   N16       1.0  0.17521  0.56821  0.21836  1.0000
  N   N17       1.0  0.56821  0.21836  0.17521  1.0000
  N   N18       1.0  0.43179  0.71836  0.32479  1.0000
  N   N19       1.0  0.93179  0.78164  0.67521  1.0000
  N   N20       1.0  0.06821  0.28164  0.82479  1.0000
  N   N21       1.0  0.71836  0.32479  0.43179  1.0000
  N   N22       1.0  0.21836  0.17521  0.56821  1.0000
  N   N23       1.0  0.28164  0.82479  0.06821  1.0000
  N   N24       1.0  0.78164  0.67521  0.93179  1.0000
  N   N25       1.0  0.18179  0.92521  0.03164  1.0000
  N   N26       1.0  0.31821  0.07479  0.53164  1.0000
  N   N27       1.0  0.81821  0.42521  0.46836  1.0000
  N   N28       1.0  0.68179  0.57479  0.96836  1.0000
  N   N29       1.0  0.03164  0.18179  0.92521  1.0000
  N   N30       1.0  0.53164  0.31821  0.07479  1.0000
  N   N31       1.0  0.46836  0.81821  0.42521  1.0000
  N   N32       1.0  0.96836  0.68179  0.57479  1.0000
  N   N33       1.0  0.92521  0.03164  0.18179  1.0000
  N   N34       1.0  0.07479  0.53164  0.31821  1.0000
  N   N35       1.0  0.42521  0.46836  0.81821  1.0000
  N   N36       1.0  0.57479  0.96836  0.68179  1.0000
  N   N37       1.0  0.17521  0.93179  0.71836  1.0000
  N   N38       1.0  0.32479  0.06821  0.21836  1.0000
  N   N39       1.0  0.67521  0.56821  0.28164  1.0000
  N   N40       1.0  0.82479  0.43179  0.78164  1.0000
  N   N41       1.0  0.43179  0.78164  0.82479  1.0000
  N   N42       1.0  0.56821  0.28164  0.67521  1.0000
  N   N43       1.0  0.06821  0.21836  0.32479  1.0000
  N   N44       1.0  0.93179  0.71836  0.17521  1.0000
  N   N45       1.0  0.28164  0.67521  0.56821  1.0000
  N   N46       1.0  0.78164  0.82479  0.43179  1.0000
  N   N47       1.0  0.71836  0.17521  0.93179  1.0000
  N   N48       1.0  0.21836  0.32479  0.06821  1.0000
  N   N49       1.0  0.31821  0.57479  0.46836  1.0000
  N   N50       1.0  0.18179  0.42521  0.96836  1.0000
  N   N51       1.0  0.68179  0.07479  0.03164  1.0000
  N   N52       1.0  0.81821  0.92521  0.53164  1.0000
  N   N53       1.0  0.46836  0.31821  0.57479  1.0000
  N   N54       1.0  0.96836  0.18179  0.42521  1.0000
  N   N55       1.0  0.03164  0.68179  0.07479  1.0000
  N   N56       1.0  0.53164  0.81821  0.92521  1.0000
  N   N57       1.0  0.57479  0.46836  0.31821  1.0000
  N   N58       1.0  0.42521  0.96836  0.18179  1.0000
  N   N59       1.0  0.07479  0.03164  0.68179  1.0000
  N   N60       1.0  0.92521  0.53164  0.81821  1.0000
  N   N61       1.0  0.32479  0.56821  0.78164  1.0000
  N   N62       1.0  0.17521  0.43179  0.28164  1.0000
  N   N63       1.0  0.82479  0.93179  0.21836  1.0000
  N   N64       1.0  0.67521  0.06821  0.71836  1.0000
  N   N65       1.0  0.06821  0.71836  0.67521  1.0000
  N   N66       1.0  0.93179  0.21836  0.82479  1.0000
  N   N67       1.0  0.43179  0.28164  0.17521  1.0000
  N   N68       1.0  0.56821  0.78164  0.32479  1.0000
  N   N69       1.0  0.21836  0.82479  0.93179  1.0000
  N   N70       1.0  0.71836  0.67521  0.06821  1.0000
  N   N71       1.0  0.78164  0.32479  0.56821  1.0000
  N   N72       1.0  0.28164  0.17521  0.43179  1.0000
  N   N73       1.0  0.68179  0.42521  0.53164  1.0000
  N   N74       1.0  0.81821  0.57479  0.03164  1.0000
  N   N75       1.0  0.31821  0.92521  0.96836  1.0000
  N   N76       1.0  0.18179  0.07479  0.46836  1.0000
  N   N77       1.0  0.53164  0.68179  0.42521  1.0000
  N   N78       1.0  0.03164  0.81821  0.57479  1.0000
  N   N79       1.0  0.96836  0.31821  0.92521  1.0000
  N   N80       1.0  0.46836  0.18179  0.07479  1.0000
  N   N81       1.0  0.42521  0.53164  0.68179  1.0000
  N   N82       1.0  0.57479  0.03164  0.81821  1.0000
  N   N83       1.0  0.92521  0.96836  0.31821  1.0000
  N   N84       1.0  0.07479  0.46836  0.18179  1.0000
  N   N85       1.0  0.67521  0.43179  0.21836  1.0000
  N   N86       1.0  0.82479  0.56821  0.71836  1.0000
  N   N87       1.0  0.17521  0.06821  0.78164  1.0000
  N   N88       1.0  0.32479  0.93179  0.28164  1.0000
  N   N89       1.0  0.93179  0.28164  0.32479  1.0000
  N   N90       1.0  0.06821  0.78164  0.17521  1.0000
  N   N91       1.0  0.56821  0.71836  0.82479  1.0000
  N   N92       1.0  0.43179  0.21836  0.67521  1.0000
  N   N93       1.0  0.78164  0.17521  0.06821  1.0000
  N   N94       1.0  0.28164  0.32479  0.93179  1.0000
  N   N95       1.0  0.21836  0.67521  0.43179  1.0000
  N   N96       1.0  0.71836  0.82479  0.56821  1.0000
  N   N97       1.0  0.90645  0.02433  0.96945  1.0000
  N   N98       1.0  0.59355  0.97567  0.46945  1.0000
  N   N99       1.0  0.09355  0.52433  0.53055  1.0000
  N   N100      1.0  0.40645  0.47567  0.03055  1.0000
  N   N101      1.0  0.96945  0.90645  0.02433  1.0000
  N   N102      1.0  0.46945  0.59355  0.97567  1.0000
  N   N103      1.0  0.53055  0.09355  0.52433  1.0000
  N   N104      1.0  0.03055  0.40645  0.47567  1.0000
  N   N105      1.0  0.02433  0.96945  0.90645  1.0000
  N   N106      1.0  0.97567  0.46945  0.59355  1.0000
  N   N107      1.0  0.52433  0.53055  0.09355  1.0000
  N   N108      1.0  0.47567  0.03055  0.40645  1.0000
  N   N109      1.0  0.77433  0.15645  0.28055  1.0000
  N   N110      1.0  0.72567  0.84355  0.78055  1.0000
  N   N111      1.0  0.27433  0.34355  0.71945  1.0000
  N   N112      1.0  0.22567  0.65645  0.21945  1.0000
  N   N113      1.0  0.65645  0.21945  0.22567  1.0000
  N   N114      1.0  0.34355  0.71945  0.27433  1.0000
  N   N115      1.0  0.84355  0.78055  0.72567  1.0000
  N   N116      1.0  0.15645  0.28055  0.77433  1.0000
  N   N117      1.0  0.71945  0.27433  0.34355  1.0000
  N   N118      1.0  0.21945  0.22567  0.65645  1.0000
  N   N119      1.0  0.28055  0.77433  0.15645  1.0000
  N   N120      1.0  0.78055  0.72567  0.84355  1.0000
  N   N121      1.0  0.09355  0.97567  0.03055  1.0000
  N   N122      1.0  0.40645  0.02433  0.53055  1.0000
  N   N123      1.0  0.90645  0.47567  0.46945  1.0000
  N   N124      1.0  0.59355  0.52433  0.96945  1.0000
  N   N125      1.0  0.03055  0.09355  0.97567  1.0000
  N   N126      1.0  0.53055  0.40645  0.02433  1.0000
  N   N127      1.0  0.46945  0.90645  0.47567  1.0000
  N   N128      1.0  0.96945  0.59355  0.52433  1.0000
  N   N129      1.0  0.97567  0.03055  0.09355  1.0000
  N   N130      1.0  0.02433  0.53055  0.40645  1.0000
  N   N131      1.0  0.47567  0.46945  0.90645  1.0000
  N   N132      1.0  0.52433  0.96945  0.59355  1.0000
  N   N133      1.0  0.22567  0.84355  0.71945  1.0000
  N   N134      1.0  0.27433  0.15645  0.21945  1.0000
  N   N135      1.0  0.72567  0.65645  0.28055  1.0000
  N   N136      1.0  0.77433  0.34355  0.78055  1.0000
  N   N137      1.0  0.34355  0.78055  0.77433  1.0000
  N   N138      1.0  0.65645  0.28055  0.72567  1.0000
  N   N139      1.0  0.15645  0.21945  0.27433  1.0000
  N   N140      1.0  0.84355  0.71945  0.22567  1.0000
  N   N141      1.0  0.28055  0.72567  0.65645  1.0000
  N   N142      1.0  0.78055  0.77433  0.34355  1.0000
  N   N143      1.0  0.71945  0.22567  0.84355  1.0000
  N   N144      1.0  0.21945  0.27433  0.15645  1.0000
  N   N145      1.0  0.40645  0.52433  0.46945  1.0000
  N   N146      1.0  0.09355  0.47567  0.96945  1.0000
  N   N147      1.0  0.59355  0.02433  0.03055  1.0000
  N   N148      1.0  0.90645  0.97567  0.53055  1.0000
  N   N149      1.0  0.46945  0.40645  0.52433  1.0000
  N   N150      1.0  0.96945  0.09355  0.47567  1.0000
  N   N151      1.0  0.03055  0.59355  0.02433  1.0000
  N   N152      1.0  0.53055  0.90645  0.97567  1.0000
  N   N153      1.0  0.52433  0.46945  0.40645  1.0000
  N   N154      1.0  0.47567  0.96945  0.09355  1.0000
  N   N155      1.0  0.02433  0.03055  0.59355  1.0000
  N   N156      1.0  0.97567  0.53055  0.90645  1.0000
  N   N157      1.0  0.27433  0.65645  0.78055  1.0000
  N   N158      1.0  0.22567  0.34355  0.28055  1.0000
  N   N159      1.0  0.77433  0.84355  0.21945  1.0000
  N   N160      1.0  0.72567  0.15645  0.71945  1.0000
  N   N161      1.0  0.15645  0.71945  0.72567  1.0000
  N   N162      1.0  0.84355  0.21945  0.77433  1.0000
  N   N163      1.0  0.34355  0.28055  0.22567  1.0000
  N   N164      1.0  0.65645  0.78055  0.27433  1.0000
  N   N165      1.0  0.21945  0.77433  0.84355  1.0000
  N   N166      1.0  0.71945  0.72567  0.15645  1.0000
  N   N167      1.0  0.78055  0.27433  0.65645  1.0000
  N   N168      1.0  0.28055  0.22567  0.34355  1.0000
  N   N169      1.0  0.59355  0.47567  0.53055  1.0000
  N   N170      1.0  0.90645  0.52433  0.03055  1.0000
  N   N171      1.0  0.40645  0.97567  0.96945  1.0000
  N   N172      1.0  0.09355  0.02433  0.46945  1.0000
  N   N173      1.0  0.53055  0.59355  0.47567  1.0000
  N   N174      1.0  0.03055  0.90645  0.52433  1.0000
  N   N175      1.0  0.96945  0.40645  0.97567  1.0000
  N   N176      1.0  0.46945  0.09355  0.02433  1.0000
  N   N177      1.0  0.47567  0.53055  0.59355  1.0000
  N   N178      1.0  0.52433  0.03055  0.90645  1.0000
  N   N179      1.0  0.97567  0.96945  0.40645  1.0000
  N   N180      1.0  0.02433  0.46945  0.09355  1.0000
  N   N181      1.0  0.72567  0.34355  0.21945  1.0000
  N   N182      1.0  0.77433  0.65645  0.71945  1.0000
  N   N183      1.0  0.22567  0.15645  0.78055  1.0000
  N   N184      1.0  0.27433  0.84355  0.28055  1.0000
  N   N185      1.0  0.84355  0.28055  0.27433  1.0000
  N   N186      1.0  0.15645  0.78055  0.22567  1.0000
  N   N187      1.0  0.65645  0.71945  0.77433  1.0000
  N   N188      1.0  0.34355  0.21945  0.72567  1.0000
  N   N189      1.0  0.78055  0.22567  0.15645  1.0000
  N   N190      1.0  0.28055  0.27433  0.84355  1.0000
  N   N191      1.0  0.21945  0.72567  0.34355  1.0000
  N   N192      1.0  0.71945  0.77433  0.65645  1.0000
  C   C1        1.0  0.86774  0.05945  0.00029  1.0000
  C   C2        1.0  0.63226  0.94055  0.50029  1.0000
  C   C3        1.0  0.13226  0.55945  0.49971  1.0000
  C   C4        1.0  0.36774  0.44055  0.99971  1.0000
  C   C5        1.0  0.00029  0.86774  0.05945  1.0000
  C   C6        1.0  0.50029  0.63226  0.94055  1.0000
  C   C7        1.0  0.49971  0.13226  0.55945  1.0000
  C   C8        1.0  0.99971  0.36774  0.44055  1.0000
  C   C9        1.0  0.05945  0.00029  0.86774  1.0000
  C   C10       1.0  0.94055  0.50029  0.63226  1.0000
  C   C11       1.0  0.55945  0.49971  0.13226  1.0000
  C   C12       1.0  0.44055  0.99971  0.36774  1.0000
  C   C13       1.0  0.80945  0.11774  0.24971  1.0000
  C   C14       1.0  0.69055  0.88226  0.74971  1.0000
  C   C15       1.0  0.30945  0.38226  0.75029  1.0000
  C   C16       1.0  0.19055  0.61774  0.25029  1.0000
  C   C17       1.0  0.61774  0.25029  0.19055  1.0000
  C   C18       1.0  0.38226  0.75029  0.30945  1.0000
  C   C19       1.0  0.88226  0.74971  0.69055  1.0000
  C   C20       1.0  0.11774  0.24971  0.80945  1.0000
  C   C21       1.0  0.75029  0.30945  0.38226  1.0000
  C   C22       1.0  0.25029  0.19055  0.61774  1.0000
  C   C23       1.0  0.24971  0.80945  0.11774  1.0000
  C   C24       1.0  0.74971  0.69055  0.88226  1.0000
  C   C25       1.0  0.13226  0.94055  0.99971  1.0000
  C   C26       1.0  0.36774  0.05945  0.49971  1.0000
  C   C27       1.0  0.86774  0.44055  0.50029  1.0000
  C   C28       1.0  0.63226  0.55945  0.00029  1.0000
  C   C29       1.0  0.99971  0.13226  0.94055  1.0000
  C   C30       1.0  0.49971  0.36774  0.05945  1.0000
  C   C31       1.0  0.50029  0.86774  0.44055  1.0000
  C   C32       1.0  0.00029  0.63226  0.55945  1.0000
  C   C33       1.0  0.94055  0.99971  0.13226  1.0000
  C   C34       1.0  0.05945  0.49971  0.36774  1.0000
  C   C35       1.0  0.44055  0.50029  0.86774  1.0000
  C   C36       1.0  0.55945  0.00029  0.63226  1.0000
  C   C37       1.0  0.19055  0.88226  0.75029  1.0000
  C   C38       1.0  0.30945  0.11774  0.25029  1.0000
  C   C39       1.0  0.69055  0.61774  0.24971  1.0000
  C   C40       1.0  0.80945  0.38226  0.74971  1.0000
  C   C41       1.0  0.38226  0.74971  0.80945  1.0000
  C   C42       1.0  0.61774  0.24971  0.69055  1.0000
  C   C43       1.0  0.11774  0.25029  0.30945  1.0000
  C   C44       1.0  0.88226  0.75029  0.19055  1.0000
  C   C45       1.0  0.24971  0.69055  0.61774  1.0000
  C   C46       1.0  0.74971  0.80945  0.38226  1.0000
  C   C47       1.0  0.75029  0.19055  0.88226  1.0000
  C   C48       1.0  0.25029  0.30945  0.11774  1.0000
  C   C49       1.0  0.36774  0.55945  0.50029  1.0000
  C   C50       1.0  0.13226  0.44055  0.00029  1.0000
  C   C51       1.0  0.63226  0.05945  0.99971  1.0000
  C   C52       1.0  0.86774  0.94055  0.49971  1.0000
  C   C53       1.0  0.50029  0.36774  0.55945  1.0000
  C   C54       1.0  0.00029  0.13226  0.44055  1.0000
  C   C55       1.0  0.99971  0.63226  0.05945  1.0000
  C   C56       1.0  0.49971  0.86774  0.94055  1.0000
  C   C57       1.0  0.55945  0.50029  0.36774  1.0000
  C   C58       1.0  0.44055  0.00029  0.13226  1.0000
  C   C59       1.0  0.05945  0.99971  0.63226  1.0000
  C   C60       1.0  0.94055  0.49971  0.86774  1.0000
  C   C61       1.0  0.30945  0.61774  0.74971  1.0000
  C   C62       1.0  0.19055  0.38226  0.24971  1.0000
  C   C63       1.0  0.80945  0.88226  0.25029  1.0000
  C   C64       1.0  0.69055  0.11774  0.75029  1.0000
  C   C65       1.0  0.11774  0.75029  0.69055  1.0000
  C   C66       1.0  0.88226  0.25029  0.80945  1.0000
  C   C67       1.0  0.38226  0.24971  0.19055  1.0000
  C   C68       1.0  0.61774  0.74971  0.30945  1.0000
  C   C69       1.0  0.25029  0.80945  0.88226  1.0000
  C   C70       1.0  0.75029  0.69055  0.11774  1.0000
  C   C71       1.0  0.74971  0.30945  0.61774  1.0000
  C   C72       1.0  0.24971  0.19055  0.38226  1.0000
  C   C73       1.0  0.63226  0.44055  0.49971  1.0000
  C   C74       1.0  0.86774  0.55945  0.99971  1.0000
  C   C75       1.0  0.36774  0.94055  0.00029  1.0000
  C   C76       1.0  0.13226  0.05945  0.50029  1.0000
  C   C77       1.0  0.49971  0.63226  0.44055  1.0000
  C   C78       1.0  0.99971  0.86774  0.55945  1.0000
  C   C79       1.0  0.00029  0.36774  0.94055  1.0000
  C   C80       1.0  0.50029  0.13226  0.05945  1.0000
  C   C81       1.0  0.44055  0.49971  0.63226  1.0000
  C   C82       1.0  0.55945  0.99971  0.86774  1.0000
  C   C83       1.0  0.94055  0.00029  0.36774  1.0000
  C   C84       1.0  0.05945  0.50029  0.13226  1.0000
  C   C85       1.0  0.69055  0.38226  0.25029  1.0000
  C   C86       1.0  0.80945  0.61774  0.75029  1.0000
  C   C87       1.0  0.19055  0.11774  0.74971  1.0000
  C   C88       1.0  0.30945  0.88226  0.24971  1.0000
  C   C89       1.0  0.88226  0.24971  0.30945  1.0000
  C   C90       1.0  0.11774  0.74971  0.19055  1.0000
  C   C91       1.0  0.61774  0.75029  0.80945  1.0000
  C   C92       1.0  0.38226  0.25029  0.69055  1.0000
  C   C93       1.0  0.74971  0.19055  0.11774  1.0000
  C   C94       1.0  0.24971  0.30945  0.88226  1.0000
  C   C95       1.0  0.25029  0.69055  0.38226  1.0000
  C   C96       1.0  0.75029  0.80945  0.61774  1.0000
  C   C97       1.0  0.87966  0.01639  0.91348  1.0000
  C   C98       1.0  0.62034  0.98361  0.41348  1.0000
  C   C99       1.0  0.12034  0.51639  0.58652  1.0000
  C   C100      1.0  0.37966  0.48361  0.08652  1.0000
  C   C101      1.0  0.91348  0.87966  0.01639  1.0000
  C   C102      1.0  0.41348  0.62034  0.98361  1.0000
  C   C103      1.0  0.58652  0.12034  0.51639  1.0000
  C   C104      1.0  0.08652  0.37966  0.48361  1.0000
  C   C105      1.0  0.01639  0.91348  0.87966  1.0000
  C   C106      1.0  0.98361  0.41348  0.62034  1.0000
  C   C107      1.0  0.51639  0.58652  0.12034  1.0000
  C   C108      1.0  0.48361  0.08652  0.37966  1.0000
  C   C109      1.0  0.76639  0.12966  0.33652  1.0000
  C   C110      1.0  0.73361  0.87034  0.83652  1.0000
  C   C111      1.0  0.26639  0.37034  0.66348  1.0000
  C   C112      1.0  0.23361  0.62966  0.16348  1.0000
  C   C113      1.0  0.62966  0.16348  0.23361  1.0000
  C   C114      1.0  0.37034  0.66348  0.26639  1.0000
  C   C115      1.0  0.87034  0.83652  0.73361  1.0000
  C   C116      1.0  0.12966  0.33652  0.76639  1.0000
  C   C117      1.0  0.66348  0.26639  0.37034  1.0000
  C   C118      1.0  0.16348  0.23361  0.62966  1.0000
  C   C119      1.0  0.33652  0.76639  0.12966  1.0000
  C   C120      1.0  0.83652  0.73361  0.87034  1.0000
  C   C121      1.0  0.12034  0.98361  0.08652  1.0000
  C   C122      1.0  0.37966  0.01639  0.58652  1.0000
  C   C123      1.0  0.87966  0.48361  0.41348  1.0000
  C   C124      1.0  0.62034  0.51639  0.91348  1.0000
  C   C125      1.0  0.08652  0.12034  0.98361  1.0000
  C   C126      1.0  0.58652  0.37966  0.01639  1.0000
  C   C127      1.0  0.41348  0.87966  0.48361  1.0000
  C   C128      1.0  0.91348  0.62034  0.51639  1.0000
  C   C129      1.0  0.98361  0.08652  0.12034  1.0000
  C   C130      1.0  0.01639  0.58652  0.37966  1.0000
  C   C131      1.0  0.48361  0.41348  0.87966  1.0000
  C   C132      1.0  0.51639  0.91348  0.62034  1.0000
  C   C133      1.0  0.23361  0.87034  0.66348  1.0000
  C   C134      1.0  0.26639  0.12966  0.16348  1.0000
  C   C135      1.0  0.73361  0.62966  0.33652  1.0000
  C   C136      1.0  0.76639  0.37034  0.83652  1.0000
  C   C137      1.0  0.37034  0.83652  0.76639  1.0000
  C   C138      1.0  0.62966  0.33652  0.73361  1.0000
  C   C139      1.0  0.12966  0.16348  0.26639  1.0000
  C   C140      1.0  0.87034  0.66348  0.23361  1.0000
  C   C141      1.0  0.33652  0.73361  0.62966  1.0000
  C   C142      1.0  0.83652  0.76639  0.37034  1.0000
  C   C143      1.0  0.66348  0.23361  0.87034  1.0000
  C   C144      1.0  0.16348  0.26639  0.12966  1.0000
  C   C145      1.0  0.37966  0.51639  0.41348  1.0000
  C   C146      1.0  0.12034  0.48361  0.91348  1.0000
  C   C147      1.0  0.62034  0.01639  0.08652  1.0000
  C   C148      1.0  0.87966  0.98361  0.58652  1.0000
  C   C149      1.0  0.41348  0.37966  0.51639  1.0000
  C   C150      1.0  0.91348  0.12034  0.48361  1.0000
  C   C151      1.0  0.08652  0.62034  0.01639  1.0000
  C   C152      1.0  0.58652  0.87966  0.98361  1.0000
  C   C153      1.0  0.51639  0.41348  0.37966  1.0000
  C   C154      1.0  0.48361  0.91348  0.12034  1.0000
  C   C155      1.0  0.01639  0.08652  0.62034  1.0000
  C   C156      1.0  0.98361  0.58652  0.87966  1.0000
  C   C157      1.0  0.26639  0.62966  0.83652  1.0000
  C   C158      1.0  0.23361  0.37034  0.33652  1.0000
  C   C159      1.0  0.76639  0.87034  0.16348  1.0000
  C   C160      1.0  0.73361  0.12966  0.66348  1.0000
  C   C161      1.0  0.12966  0.66348  0.73361  1.0000
  C   C162      1.0  0.87034  0.16348  0.76639  1.0000
  C   C163      1.0  0.37034  0.33652  0.23361  1.0000
  C   C164      1.0  0.62966  0.83652  0.26639  1.0000
  C   C165      1.0  0.16348  0.76639  0.87034  1.0000
  C   C166      1.0  0.66348  0.73361  0.12966  1.0000
  C   C167      1.0  0.83652  0.26639  0.62966  1.0000
  C   C168      1.0  0.33652  0.23361  0.37034  1.0000
  C   C169      1.0  0.62034  0.48361  0.58652  1.0000
  C   C170      1.0  0.87966  0.51639  0.08652  1.0000
  C   C171      1.0  0.37966  0.98361  0.91348  1.0000
  C   C172      1.0  0.12034  0.01639  0.41348  1.0000
  C   C173      1.0  0.58652  0.62034  0.48361  1.0000
  C   C174      1.0  0.08652  0.87966  0.51639  1.0000
  C   C175      1.0  0.91348  0.37966  0.98361  1.0000
  C   C176      1.0  0.41348  0.12034  0.01639  1.0000
  C   C177      1.0  0.48361  0.58652  0.62034  1.0000
  C   C178      1.0  0.51639  0.08652  0.87966  1.0000
  C   C179      1.0  0.98361  0.91348  0.37966  1.0000
  C   C180      1.0  0.01639  0.41348  0.12034  1.0000
  C   C181      1.0  0.73361  0.37034  0.16348  1.0000
  C   C182      1.0  0.76639  0.62966  0.66348  1.0000
  C   C183      1.0  0.23361  0.12966  0.83652  1.0000
  C   C184      1.0  0.26639  0.87034  0.33652  1.0000
  C   C185      1.0  0.87034  0.33652  0.26639  1.0000
  C   C186      1.0  0.12966  0.83652  0.23361  1.0000
  C   C187      1.0  0.62966  0.66348  0.76639  1.0000
  C   C188      1.0  0.37034  0.16348  0.73361  1.0000
  C   C189      1.0  0.83652  0.23361  0.12966  1.0000
  C   C190      1.0  0.33652  0.26639  0.87034  1.0000
  C   C191      1.0  0.16348  0.73361  0.37034  1.0000
  C   C192      1.0  0.66348  0.76639  0.62966  1.0000
  C   C193      1.0  0.82606  0.04685  0.91282  1.0000
  C   C194      1.0  0.67394  0.95315  0.41282  1.0000
  C   C195      1.0  0.17394  0.54685  0.58718  1.0000
  C   C196      1.0  0.32606  0.45315  0.08718  1.0000
  C   C197      1.0  0.91282  0.82606  0.04685  1.0000
  C   C198      1.0  0.41282  0.67394  0.95315  1.0000
  C   C199      1.0  0.58718  0.17394  0.54685  1.0000
  C   C200      1.0  0.08718  0.32606  0.45315  1.0000
  C   C201      1.0  0.04685  0.91282  0.82606  1.0000
  C   C202      1.0  0.95315  0.41282  0.67394  1.0000
  C   C203      1.0  0.54685  0.58718  0.17394  1.0000
  C   C204      1.0  0.45315  0.08718  0.32606  1.0000
  C   C205      1.0  0.79685  0.07606  0.33718  1.0000
  C   C206      1.0  0.70315  0.92394  0.83718  1.0000
  C   C207      1.0  0.29685  0.42394  0.66282  1.0000
  C   C208      1.0  0.20315  0.57606  0.16282  1.0000
  C   C209      1.0  0.57606  0.16282  0.20315  1.0000
  C   C210      1.0  0.42394  0.66282  0.29685  1.0000
  C   C211      1.0  0.92394  0.83718  0.70315  1.0000
  C   C212      1.0  0.07606  0.33718  0.79685  1.0000
  C   C213      1.0  0.66282  0.29685  0.42394  1.0000
  C   C214      1.0  0.16282  0.20315  0.57606  1.0000
  C   C215      1.0  0.33718  0.79685  0.07606  1.0000
  C   C216      1.0  0.83718  0.70315  0.92394  1.0000
  C   C217      1.0  0.17394  0.95315  0.08718  1.0000
  C   C218      1.0  0.32606  0.04685  0.58718  1.0000
  C   C219      1.0  0.82606  0.45315  0.41282  1.0000
  C   C220      1.0  0.67394  0.54685  0.91282  1.0000
  C   C221      1.0  0.08718  0.17394  0.95315  1.0000
  C   C222      1.0  0.58718  0.32606  0.04685  1.0000
  C   C223      1.0  0.41282  0.82606  0.45315  1.0000
  C   C224      1.0  0.91282  0.67394  0.54685  1.0000
  C   C225      1.0  0.95315  0.08718  0.17394  1.0000
  C   C226      1.0  0.04685  0.58718  0.32606  1.0000
  C   C227      1.0  0.45315  0.41282  0.82606  1.0000
  C   C228      1.0  0.54685  0.91282  0.67394  1.0000
  C   C229      1.0  0.20315  0.92394  0.66282  1.0000
  C   C230      1.0  0.29685  0.07606  0.16282  1.0000
  C   C231      1.0  0.70315  0.57606  0.33718  1.0000
  C   C232      1.0  0.79685  0.42394  0.83718  1.0000
  C   C233      1.0  0.42394  0.83718  0.79685  1.0000
  C   C234      1.0  0.57606  0.33718  0.70315  1.0000
  C   C235      1.0  0.07606  0.16282  0.29685  1.0000
  C   C236      1.0  0.92394  0.66282  0.20315  1.0000
  C   C237      1.0  0.33718  0.70315  0.57606  1.0000
  C   C238      1.0  0.83718  0.79685  0.42394  1.0000
  C   C239      1.0  0.66282  0.20315  0.92394  1.0000
  C   C240      1.0  0.16282  0.29685  0.07606  1.0000
  C   C241      1.0  0.32606  0.54685  0.41282  1.0000
  C   C242      1.0  0.17394  0.45315  0.91282  1.0000
  C   C243      1.0  0.67394  0.04685  0.08718  1.0000
  C   C244      1.0  0.82606  0.95315  0.58718  1.0000
  C   C245      1.0  0.41282  0.32606  0.54685  1.0000
  C   C246      1.0  0.91282  0.17394  0.45315  1.0000
  C   C247      1.0  0.08718  0.67394  0.04685  1.0000
  C   C248      1.0  0.58718  0.82606  0.95315  1.0000
  C   C249      1.0  0.54685  0.41282  0.32606  1.0000
  C   C250      1.0  0.45315  0.91282  0.17394  1.0000
  C   C251      1.0  0.04685  0.08718  0.67394  1.0000
  C   C252      1.0  0.95315  0.58718  0.82606  1.0000
  C   C253      1.0  0.29685  0.57606  0.83718  1.0000
  C   C254      1.0  0.20315  0.42394  0.33718  1.0000
  C   C255      1.0  0.79685  0.92394  0.16282  1.0000
  C   C256      1.0  0.70315  0.07606  0.66282  1.0000
  C   C257      1.0  0.07606  0.66282  0.70315  1.0000
  C   C258      1.0  0.92394  0.16282  0.79685  1.0000
  C   C259      1.0  0.42394  0.33718  0.20315  1.0000
  C   C260      1.0  0.57606  0.83718  0.29685  1.0000
  C   C261      1.0  0.16282  0.79685  0.92394  1.0000
  C   C262      1.0  0.66282  0.70315  0.07606  1.0000
  C   C263      1.0  0.83718  0.29685  0.57606  1.0000
  C   C264      1.0  0.33718  0.20315  0.42394  1.0000
  C   C265      1.0  0.67394  0.45315  0.58718  1.0000
  C   C266      1.0  0.82606  0.54685  0.08718  1.0000
  C   C267      1.0  0.32606  0.95315  0.91282  1.0000
  C   C268      1.0  0.17394  0.04685  0.41282  1.0000
  C   C269      1.0  0.58718  0.67394  0.45315  1.0000
  C   C270      1.0  0.08718  0.82606  0.54685  1.0000
  C   C271      1.0  0.91282  0.32606  0.95315  1.0000
  C   C272      1.0  0.41282  0.17394  0.04685  1.0000
  C   C273      1.0  0.45315  0.58718  0.67394  1.0000
  C   C274      1.0  0.54685  0.08718  0.82606  1.0000
  C   C275      1.0  0.95315  0.91282  0.32606  1.0000
  C   C276      1.0  0.04685  0.41282  0.17394  1.0000
  C   C277      1.0  0.70315  0.42394  0.16282  1.0000
  C   C278      1.0  0.79685  0.57606  0.66282  1.0000
  C   C279      1.0  0.20315  0.07606  0.83718  1.0000
  C   C280      1.0  0.29685  0.92394  0.33718  1.0000
  C   C281      1.0  0.92394  0.33718  0.29685  1.0000
  C   C282      1.0  0.07606  0.83718  0.20315  1.0000
  C   C283      1.0  0.57606  0.66282  0.79685  1.0000
  C   C284      1.0  0.42394  0.16282  0.70315  1.0000
  C   C285      1.0  0.83718  0.20315  0.07606  1.0000
  C   C286      1.0  0.33718  0.29685  0.92394  1.0000
  C   C287      1.0  0.16282  0.70315  0.42394  1.0000
  C   C288      1.0  0.66282  0.79685  0.57606  1.0000
  H   H1        1.0  0.87260  0.07180  0.03950  1.0000
  H   H2        1.0  0.62740  0.92820  0.53950  1.0000
  H   H3        1.0  0.12740  0.57180  0.46050  1.0000
  H   H4        1.0  0.37260  0.42820  0.96050  1.0000
  H   H5        1.0  0.03950  0.87260  0.07180  1.0000
  H   H6        1.0  0.53950  0.62740  0.92820  1.0000
  H   H7        1.0  0.46050  0.12740  0.57180  1.0000
  H   H8        1.0  0.96050  0.37260  0.42820  1.0000
  H   H9        1.0  0.07180  0.03950  0.87260  1.0000
  H   H10       1.0  0.92820  0.53950  0.62740  1.0000
  H   H11       1.0  0.57180  0.46050  0.12740  1.0000
  H   H12       1.0  0.42820  0.96050  0.37260  1.0000
  H   H13       1.0  0.82180  0.12260  0.21050  1.0000
  H   H14       1.0  0.67820  0.87740  0.71050  1.0000
  H   H15       1.0  0.32180  0.37740  0.78950  1.0000
  H   H16       1.0  0.17820  0.62260  0.28950  1.0000
  H   H17       1.0  0.62260  0.28950  0.17820  1.0000
  H   H18       1.0  0.37740  0.78950  0.32180  1.0000
  H   H19       1.0  0.87740  0.71050  0.67820  1.0000
  H   H20       1.0  0.12260  0.21050  0.82180  1.0000
  H   H21       1.0  0.78950  0.32180  0.37740  1.0000
  H   H22       1.0  0.28950  0.17820  0.62260  1.0000
  H   H23       1.0  0.21050  0.82180  0.12260  1.0000
  H   H24       1.0  0.71050  0.67820  0.87740  1.0000
  H   H25       1.0  0.12740  0.92820  0.96050  1.0000
  H   H26       1.0  0.37260  0.07180  0.46050  1.0000
  H   H27       1.0  0.87260  0.42820  0.53950  1.0000
  H   H28       1.0  0.62740  0.57180  0.03950  1.0000
  H   H29       1.0  0.96050  0.12740  0.92820  1.0000
  H   H30       1.0  0.46050  0.37260  0.07180  1.0000
  H   H31       1.0  0.53950  0.87260  0.42820  1.0000
  H   H32       1.0  0.03950  0.62740  0.57180  1.0000
  H   H33       1.0  0.92820  0.96050  0.12740  1.0000
  H   H34       1.0  0.07180  0.46050  0.37260  1.0000
  H   H35       1.0  0.42820  0.53950  0.87260  1.0000
  H   H36       1.0  0.57180  0.03950  0.62740  1.0000
  H   H37       1.0  0.17820  0.87740  0.78950  1.0000
  H   H38       1.0  0.32180  0.12260  0.28950  1.0000
  H   H39       1.0  0.67820  0.62260  0.21050  1.0000
  H   H40       1.0  0.82180  0.37740  0.71050  1.0000
  H   H41       1.0  0.37740  0.71050  0.82180  1.0000
  H   H42       1.0  0.62260  0.21050  0.67820  1.0000
  H   H43       1.0  0.12260  0.28950  0.32180  1.0000
  H   H44       1.0  0.87740  0.78950  0.17820  1.0000
  H   H45       1.0  0.21050  0.67820  0.62260  1.0000
  H   H46       1.0  0.71050  0.82180  0.37740  1.0000
  H   H47       1.0  0.78950  0.17820  0.87740  1.0000
  H   H48       1.0  0.28950  0.32180  0.12260  1.0000
  H   H49       1.0  0.37260  0.57180  0.53950  1.0000
  H   H50       1.0  0.12740  0.42820  0.03950  1.0000
  H   H51       1.0  0.62740  0.07180  0.96050  1.0000
  H   H52       1.0  0.87260  0.92820  0.46050  1.0000
  H   H53       1.0  0.53950  0.37260  0.57180  1.0000
  H   H54       1.0  0.03950  0.12740  0.42820  1.0000
  H   H55       1.0  0.96050  0.62740  0.07180  1.0000
  H   H56       1.0  0.46050  0.87260  0.92820  1.0000
  H   H57       1.0  0.57180  0.53950  0.37260  1.0000
  H   H58       1.0  0.42820  0.03950  0.12740  1.0000
  H   H59       1.0  0.07180  0.96050  0.62740  1.0000
  H   H60       1.0  0.92820  0.46050  0.87260  1.0000
  H   H61       1.0  0.32180  0.62260  0.71050  1.0000
  H   H62       1.0  0.17820  0.37740  0.21050  1.0000
  H   H63       1.0  0.82180  0.87740  0.28950  1.0000
  H   H64       1.0  0.67820  0.12260  0.78950  1.0000
  H   H65       1.0  0.12260  0.78950  0.67820  1.0000
  H   H66       1.0  0.87740  0.28950  0.82180  1.0000
  H   H67       1.0  0.37740  0.21050  0.17820  1.0000
  H   H68       1.0  0.62260  0.71050  0.32180  1.0000
  H   H69       1.0  0.28950  0.82180  0.87740  1.0000
  H   H70       1.0  0.78950  0.67820  0.12260  1.0000
  H   H71       1.0  0.71050  0.32180  0.62260  1.0000
  H   H72       1.0  0.21050  0.17820  0.37740  1.0000
  H   H73       1.0  0.62740  0.42820  0.46050  1.0000
  H   H74       1.0  0.87260  0.57180  0.96050  1.0000
  H   H75       1.0  0.37260  0.92820  0.03950  1.0000
  H   H76       1.0  0.12740  0.07180  0.53950  1.0000
  H   H77       1.0  0.46050  0.62740  0.42820  1.0000
  H   H78       1.0  0.96050  0.87260  0.57180  1.0000
  H   H79       1.0  0.03950  0.37260  0.92820  1.0000
  H   H80       1.0  0.53950  0.12740  0.07180  1.0000
  H   H81       1.0  0.42820  0.46050  0.62740  1.0000
  H   H82       1.0  0.57180  0.96050  0.87260  1.0000
  H   H83       1.0  0.92820  0.03950  0.37260  1.0000
  H   H84       1.0  0.07180  0.53950  0.12740  1.0000
  H   H85       1.0  0.67820  0.37740  0.28950  1.0000
  H   H86       1.0  0.82180  0.62260  0.78950  1.0000
  H   H87       1.0  0.17820  0.12260  0.71050  1.0000
  H   H88       1.0  0.32180  0.87740  0.21050  1.0000
  H   H89       1.0  0.87740  0.21050  0.32180  1.0000
  H   H90       1.0  0.12260  0.71050  0.17820  1.0000
  H   H91       1.0  0.62260  0.78950  0.82180  1.0000
  H   H92       1.0  0.37740  0.28950  0.67820  1.0000
  H   H93       1.0  0.71050  0.17820  0.12260  1.0000
  H   H94       1.0  0.21050  0.32180  0.87740  1.0000
  H   H95       1.0  0.28950  0.67820  0.37740  1.0000
  H   H96       1.0  0.78950  0.82180  0.62260  1.0000
  H   H97       1.0  0.90000  0.99560  0.88420  1.0000
  H   H98       1.0  0.60000  0.00440  0.38420  1.0000
  H   H99       1.0  0.10000  0.49560  0.61580  1.0000
  H   H100      1.0  0.40000  0.50440  0.11580  1.0000
  H   H101      1.0  0.88420  0.90000  0.99560  1.0000
  H   H102      1.0  0.38420  0.60000  0.00440  1.0000
  H   H103      1.0  0.61580  0.10000  0.49560  1.0000
  H   H104      1.0  0.11580  0.40000  0.50440  1.0000
  H   H105      1.0  0.99560  0.88420  0.90000  1.0000
  H   H106      1.0  0.00440  0.38420  0.60000  1.0000
  H   H107      1.0  0.49560  0.61580  0.10000  1.0000
  H   H108      1.0  0.50440  0.11580  0.40000  1.0000
  H   H109      1.0  0.74560  0.15000  0.36580  1.0000
  H   H110      1.0  0.75440  0.85000  0.86580  1.0000
  H   H111      1.0  0.24560  0.35000  0.63420  1.0000
  H   H112      1.0  0.25440  0.65000  0.13420  1.0000
  H   H113      1.0  0.65000  0.13420  0.25440  1.0000
  H   H114      1.0  0.35000  0.63420  0.24560  1.0000
  H   H115      1.0  0.85000  0.86580  0.75440  1.0000
  H   H116      1.0  0.15000  0.36580  0.74560  1.0000
  H   H117      1.0  0.63420  0.24560  0.35000  1.0000
  H   H118      1.0  0.13420  0.25440  0.65000  1.0000
  H   H119      1.0  0.36580  0.74560  0.15000  1.0000
  H   H120      1.0  0.86580  0.75440  0.85000  1.0000
  H   H121      1.0  0.10000  0.00440  0.11580  1.0000
  H   H122      1.0  0.40000  0.99560  0.61580  1.0000
  H   H123      1.0  0.90000  0.50440  0.38420  1.0000
  H   H124      1.0  0.60000  0.49560  0.88420  1.0000
  H   H125      1.0  0.11580  0.10000  0.00440  1.0000
  H   H126      1.0  0.61580  0.40000  0.99560  1.0000
  H   H127      1.0  0.38420  0.90000  0.50440  1.0000
  H   H128      1.0  0.88420  0.60000  0.49560  1.0000
  H   H129      1.0  0.00440  0.11580  0.10000  1.0000
  H   H130      1.0  0.99560  0.61580  0.40000  1.0000
  H   H131      1.0  0.50440  0.38420  0.90000  1.0000
  H   H132      1.0  0.49560  0.88420  0.60000  1.0000
  H   H133      1.0  0.25440  0.85000  0.63420  1.0000
  H   H134      1.0  0.24560  0.15000  0.13420  1.0000
  H   H135      1.0  0.75440  0.65000  0.36580  1.0000
  H   H136      1.0  0.74560  0.35000  0.86580  1.0000
  H   H137      1.0  0.35000  0.86580  0.74560  1.0000
  H   H138      1.0  0.65000  0.36580  0.75440  1.0000
  H   H139      1.0  0.15000  0.13420  0.24560  1.0000
  H   H140      1.0  0.85000  0.63420  0.25440  1.0000
  H   H141      1.0  0.36580  0.75440  0.65000  1.0000
  H   H142      1.0  0.86580  0.74560  0.35000  1.0000
  H   H143      1.0  0.63420  0.25440  0.85000  1.0000
  H   H144      1.0  0.13420  0.24560  0.15000  1.0000
  H   H145      1.0  0.40000  0.49560  0.38420  1.0000
  H   H146      1.0  0.10000  0.50440  0.88420  1.0000
  H   H147      1.0  0.60000  0.99560  0.11580  1.0000
  H   H148      1.0  0.90000  0.00440  0.61580  1.0000
  H   H149      1.0  0.38420  0.40000  0.49560  1.0000
  H   H150      1.0  0.88420  0.10000  0.50440  1.0000
  H   H151      1.0  0.11580  0.60000  0.99560  1.0000
  H   H152      1.0  0.61580  0.90000  0.00440  1.0000
  H   H153      1.0  0.49560  0.38420  0.40000  1.0000
  H   H154      1.0  0.50440  0.88420  0.10000  1.0000
  H   H155      1.0  0.99560  0.11580  0.60000  1.0000
  H   H156      1.0  0.00440  0.61580  0.90000  1.0000
  H   H157      1.0  0.24560  0.65000  0.86580  1.0000
  H   H158      1.0  0.25440  0.35000  0.36580  1.0000
  H   H159      1.0  0.74560  0.85000  0.13420  1.0000
  H   H160      1.0  0.75440  0.15000  0.63420  1.0000
  H   H161      1.0  0.15000  0.63420  0.75440  1.0000
  H   H162      1.0  0.85000  0.13420  0.74560  1.0000
  H   H163      1.0  0.35000  0.36580  0.25440  1.0000
  H   H164      1.0  0.65000  0.86580  0.24560  1.0000
  H   H165      1.0  0.13420  0.74560  0.85000  1.0000
  H   H166      1.0  0.63420  0.75440  0.15000  1.0000
  H   H167      1.0  0.86580  0.24560  0.65000  1.0000
  H   H168      1.0  0.36580  0.25440  0.35000  1.0000
  H   H169      1.0  0.60000  0.50440  0.61580  1.0000
  H   H170      1.0  0.90000  0.49560  0.11580  1.0000
  H   H171      1.0  0.40000  0.00440  0.88420  1.0000
  H   H172      1.0  0.10000  0.99560  0.38420  1.0000
  H   H173      1.0  0.61580  0.60000  0.50440  1.0000
  H   H174      1.0  0.11580  0.90000  0.49560  1.0000
  H   H175      1.0  0.88420  0.40000  0.00440  1.0000
  H   H176      1.0  0.38420  0.10000  0.99560  1.0000
  H   H177      1.0  0.50440  0.61580  0.60000  1.0000
  H   H178      1.0  0.49560  0.11580  0.90000  1.0000
  H   H179      1.0  0.00440  0.88420  0.40000  1.0000
  H   H180      1.0  0.99560  0.38420  0.10000  1.0000
  H   H181      1.0  0.75440  0.35000  0.13420  1.0000
  H   H182      1.0  0.74560  0.65000  0.63420  1.0000
  H   H183      1.0  0.25440  0.15000  0.86580  1.0000
  H   H184      1.0  0.24560  0.85000  0.36580  1.0000
  H   H185      1.0  0.85000  0.36580  0.24560  1.0000
  H   H186      1.0  0.15000  0.86580  0.25440  1.0000
  H   H187      1.0  0.65000  0.63420  0.74560  1.0000
  H   H188      1.0  0.35000  0.13420  0.75440  1.0000
  H   H189      1.0  0.86580  0.25440  0.15000  1.0000
  H   H190      1.0  0.36580  0.24560  0.85000  1.0000
  H   H191      1.0  0.13420  0.75440  0.35000  1.0000
  H   H192      1.0  0.63420  0.74560  0.65000  1.0000
  H   H193      1.0  0.79860  0.05180  0.88230  1.0000
  H   H194      1.0  0.70140  0.94820  0.38230  1.0000
  H   H195      1.0  0.20140  0.55180  0.61770  1.0000
  H   H196      1.0  0.29860  0.44820  0.11770  1.0000
  H   H197      1.0  0.88230  0.79860  0.05180  1.0000
  H   H198      1.0  0.38230  0.70140  0.94820  1.0000
  H   H199      1.0  0.61770  0.20140  0.55180  1.0000
  H   H200      1.0  0.11770  0.29860  0.44820  1.0000
  H   H201      1.0  0.05180  0.88230  0.79860  1.0000
  H   H202      1.0  0.94820  0.38230  0.70140  1.0000
  H   H203      1.0  0.55180  0.61770  0.20140  1.0000
  H   H204      1.0  0.44820  0.11770  0.29860  1.0000
  H   H205      1.0  0.80180  0.04860  0.36770  1.0000
  H   H206      1.0  0.69820  0.95140  0.86770  1.0000
  H   H207      1.0  0.30180  0.45140  0.63230  1.0000
  H   H208      1.0  0.19820  0.54860  0.13230  1.0000
  H   H209      1.0  0.54860  0.13230  0.19820  1.0000
  H   H210      1.0  0.45140  0.63230  0.30180  1.0000
  H   H211      1.0  0.95140  0.86770  0.69820  1.0000
  H   H212      1.0  0.04860  0.36770  0.80180  1.0000
  H   H213      1.0  0.63230  0.30180  0.45140  1.0000
  H   H214      1.0  0.13230  0.19820  0.54860  1.0000
  H   H215      1.0  0.36770  0.80180  0.04860  1.0000
  H   H216      1.0  0.86770  0.69820  0.95140  1.0000
  H   H217      1.0  0.20140  0.94820  0.11770  1.0000
  H   H218      1.0  0.29860  0.05180  0.61770  1.0000
  H   H219      1.0  0.79860  0.44820  0.38230  1.0000
  H   H220      1.0  0.70140  0.55180  0.88230  1.0000
  H   H221      1.0  0.11770  0.20140  0.94820  1.0000
  H   H222      1.0  0.61770  0.29860  0.05180  1.0000
  H   H223      1.0  0.38230  0.79860  0.44820  1.0000
  H   H224      1.0  0.88230  0.70140  0.55180  1.0000
  H   H225      1.0  0.94820  0.11770  0.20140  1.0000
  H   H226      1.0  0.05180  0.61770  0.29860  1.0000
  H   H227      1.0  0.44820  0.38230  0.79860  1.0000
  H   H228      1.0  0.55180  0.88230  0.70140  1.0000
  H   H229      1.0  0.19820  0.95140  0.63230  1.0000
  H   H230      1.0  0.30180  0.04860  0.13230  1.0000
  H   H231      1.0  0.69820  0.54860  0.36770  1.0000
  H   H232      1.0  0.80180  0.45140  0.86770  1.0000
  H   H233      1.0  0.45140  0.86770  0.80180  1.0000
  H   H234      1.0  0.54860  0.36770  0.69820  1.0000
  H   H235      1.0  0.04860  0.13230  0.30180  1.0000
  H   H236      1.0  0.95140  0.63230  0.19820  1.0000
  H   H237      1.0  0.36770  0.69820  0.54860  1.0000
  H   H238      1.0  0.86770  0.80180  0.45140  1.0000
  H   H239      1.0  0.63230  0.19820  0.95140  1.0000
  H   H240      1.0  0.13230  0.30180  0.04860  1.0000
  H   H241      1.0  0.29860  0.55180  0.38230  1.0000
  H   H242      1.0  0.20140  0.44820  0.88230  1.0000
  H   H243      1.0  0.70140  0.05180  0.11770  1.0000
  H   H244      1.0  0.79860  0.94820  0.61770  1.0000
  H   H245      1.0  0.38230  0.29860  0.55180  1.0000
  H   H246      1.0  0.88230  0.20140  0.44820  1.0000
  H   H247      1.0  0.11770  0.70140  0.05180  1.0000
  H   H248      1.0  0.61770  0.79860  0.94820  1.0000
  H   H249      1.0  0.55180  0.38230  0.29860  1.0000
  H   H250      1.0  0.44820  0.88230  0.20140  1.0000
  H   H251      1.0  0.05180  0.11770  0.70140  1.0000
  H   H252      1.0  0.94820  0.61770  0.79860  1.0000
  H   H253      1.0  0.30180  0.54860  0.86770  1.0000
  H   H254      1.0  0.19820  0.45140  0.36770  1.0000
  H   H255      1.0  0.80180  0.95140  0.13230  1.0000
  H   H256      1.0  0.69820  0.04860  0.63230  1.0000
  H   H257      1.0  0.04860  0.63230  0.69820  1.0000
  H   H258      1.0  0.95140  0.13230  0.80180  1.0000
  H   H259      1.0  0.45140  0.36770  0.19820  1.0000
  H   H260      1.0  0.54860  0.86770  0.30180  1.0000
  H   H261      1.0  0.13230  0.80180  0.95140  1.0000
  H   H262      1.0  0.63230  0.69820  0.04860  1.0000
  H   H263      1.0  0.86770  0.30180  0.54860  1.0000
  H   H264      1.0  0.36770  0.19820  0.45140  1.0000
  H   H265      1.0  0.70140  0.44820  0.61770  1.0000
  H   H266      1.0  0.79860  0.55180  0.11770  1.0000
  H   H267      1.0  0.29860  0.94820  0.88230  1.0000
  H   H268      1.0  0.20140  0.05180  0.38230  1.0000
  H   H269      1.0  0.61770  0.70140  0.44820  1.0000
  H   H270      1.0  0.11770  0.79860  0.55180  1.0000
  H   H271      1.0  0.88230  0.29860  0.94820  1.0000
  H   H272      1.0  0.38230  0.20140  0.05180  1.0000
  H   H273      1.0  0.44820  0.61770  0.70140  1.0000
  H   H274      1.0  0.55180  0.11770  0.79860  1.0000
  H   H275      1.0  0.94820  0.88230  0.29860  1.0000
  H   H276      1.0  0.05180  0.38230  0.20140  1.0000
  H   H277      1.0  0.69820  0.45140  0.13230  1.0000
  H   H278      1.0  0.80180  0.54860  0.63230  1.0000
  H   H279      1.0  0.19820  0.04860  0.86770  1.0000
  H   H280      1.0  0.30180  0.95140  0.36770  1.0000
  H   H281      1.0  0.95140  0.36770  0.30180  1.0000
  H   H282      1.0  0.04860  0.86770  0.19820  1.0000
  H   H283      1.0  0.54860  0.63230  0.80180  1.0000
  H   H284      1.0  0.45140  0.13230  0.69820  1.0000
  H   H285      1.0  0.86770  0.19820  0.04860  1.0000
  H   H286      1.0  0.36770  0.30180  0.95140  1.0000
  H   H287      1.0  0.13230  0.69820  0.45140  1.0000
  H   H288      1.0  0.63230  0.80180  0.54860  1.0000
