data_crystal

_cell_length_a    21.96190
_cell_length_b    21.96190
_cell_length_c    21.96190
_cell_angle_alpha 90.00000
_cell_angle_beta  90.00000
_cell_angle_gamma 90.00000

_space_group_name_Hall 'P 1'
_space_group_name_H-M_alt 'P 1'

loop_
_symmetry_equiv_pos_as_xyz
 'x,y,z'

loop_
_atom_site_label
_atom_site_type_symbol
_atom_site_fract_x
_atom_site_fract_y
_atom_site_fract_z
In         In      0.00000   0.00000   0.00000
In         In      0.50000   0.00000   0.50000
In         In      0.00000   0.50000   0.50000
In         In      0.50000   0.50000   0.00000
In         In      0.75000   0.25000   0.25000
In         In      0.75000   0.75000   0.75000
In         In      0.25000   0.25000   0.75000
In         In      0.25000   0.75000   0.25000
In         In      0.25000   0.75000   0.75000
In         In      0.25000   0.25000   0.25000
In         In      0.75000   0.75000   0.25000
In         In      0.75000   0.25000   0.75000
In         In      0.50000   0.50000   0.50000
In         In      0.00000   0.50000   0.00000
In         In      0.50000   0.00000   0.00000
In         In      0.00000   0.00000   0.50000
Zn         Zn      0.75000   0.12500   0.00000
Zn         Zn      0.75000   0.87500   0.50000
Zn         Zn      0.25000   0.62500   0.50000
Zn         Zn      0.25000   0.37500   0.00000
Zn         Zn      0.00000   0.75000   0.12500
Zn         Zn      0.50000   0.75000   0.87500
Zn         Zn      0.50000   0.25000   0.62500
Zn         Zn      0.00000   0.25000   0.37500
Zn         Zn      0.12500   0.00000   0.75000
Zn         Zn      0.87500   0.50000   0.75000
Zn         Zn      0.62500   0.50000   0.25000
Zn         Zn      0.37500   0.00000   0.25000
Zn         Zn      0.87500   0.00000   0.25000
Zn         Zn      0.62500   0.00000   0.75000
Zn         Zn      0.37500   0.50000   0.75000
Zn         Zn      0.12500   0.50000   0.25000
Zn         Zn      0.50000   0.25000   0.12500
Zn         Zn      0.50000   0.75000   0.37500
Zn         Zn      0.00000   0.75000   0.62500
Zn         Zn      0.00000   0.25000   0.87500
Zn         Zn      0.75000   0.37500   0.50000
Zn         Zn      0.25000   0.12500   0.50000
Zn         Zn      0.25000   0.87500   0.00000
Zn         Zn      0.75000   0.62500   0.00000
N          N       0.81821   0.07479   0.96836
N          N       0.68179   0.92521   0.46836
N          N       0.18179   0.57479   0.53164
N          N       0.31821   0.42521   0.03164
N          N       0.96836   0.81821   0.07479
N          N       0.46836   0.68179   0.92521
N          N       0.53164   0.18179   0.57479
N          N       0.03164   0.31821   0.42521
N          N       0.07479   0.96836   0.81821
N          N       0.92521   0.46836   0.68179
N          N       0.57479   0.53164   0.18179
N          N       0.42521   0.03164   0.31821
N          N       0.82479   0.06821   0.28164
N          N       0.67521   0.93179   0.78164
N          N       0.32479   0.43179   0.71836
N          N       0.17521   0.56821   0.21836
N          N       0.56821   0.21836   0.17521
N          N       0.43179   0.71836   0.32479
N          N       0.93179   0.78164   0.67521
N          N       0.06821   0.28164   0.82479
N          N       0.71836   0.32479   0.43179
N          N       0.21836   0.17521   0.56821
N          N       0.28164   0.82479   0.06821
N          N       0.78164   0.67521   0.93179
N          N       0.18179   0.92521   0.03164
N          N       0.31821   0.07479   0.53164
N          N       0.81821   0.42521   0.46836
N          N       0.68179   0.57479   0.96836
N          N       0.03164   0.18179   0.92521
N          N       0.53164   0.31821   0.07479
N          N       0.46836   0.81821   0.42521
N          N       0.96836   0.68179   0.57479
N          N       0.92521   0.03164   0.18179
N          N       0.07479   0.53164   0.31821
N          N       0.42521   0.46836   0.81821
N          N       0.57479   0.96836   0.68179
N          N       0.17521   0.93179   0.71836
N          N       0.32479   0.06821   0.21836
N          N       0.67521   0.56821   0.28164
N          N       0.82479   0.43179   0.78164
N          N       0.43179   0.78164   0.82479
N          N       0.56821   0.28164   0.67521
N          N       0.06821   0.21836   0.32479
N          N       0.93179   0.71836   0.17521
N          N       0.28164   0.67521   0.56821
N          N       0.78164   0.82479   0.43179
N          N       0.71836   0.17521   0.93179
N          N       0.21836   0.32479   0.06821
N          N       0.31821   0.57479   0.46836
N          N       0.18179   0.42521   0.96836
N          N       0.68179   0.07479   0.03164
N          N       0.81821   0.92521   0.53164
N          N       0.46836   0.31821   0.57479
N          N       0.96836   0.18179   0.42521
N          N       0.03164   0.68179   0.07479
N          N       0.53164   0.81821   0.92521
N          N       0.57479   0.46836   0.31821
N          N       0.42521   0.96836   0.18179
N          N       0.07479   0.03164   0.68179
N          N       0.92521   0.53164   0.81821
N          N       0.32479   0.56821   0.78164
N          N       0.17521   0.43179   0.28164
N          N       0.82479   0.93179   0.21836
N          N       0.67521   0.06821   0.71836
N          N       0.06821   0.71836   0.67521
N          N       0.93179   0.21836   0.82479
N          N       0.43179   0.28164   0.17521
N          N       0.56821   0.78164   0.32479
N          N       0.21836   0.82479   0.93179
N          N       0.71836   0.67521   0.06821
N          N       0.78164   0.32479   0.56821
N          N       0.28164   0.17521   0.43179
N          N       0.68179   0.42521   0.53164
N          N       0.81821   0.57479   0.03164
N          N       0.31821   0.92521   0.96836
N          N       0.18179   0.07479   0.46836
N          N       0.53164   0.68179   0.42521
N          N       0.03164   0.81821   0.57479
N          N       0.96836   0.31821   0.92521
N          N       0.46836   0.18179   0.07479
N          N       0.42521   0.53164   0.68179
N          N       0.57479   0.03164   0.81821
N          N       0.92521   0.96836   0.31821
N          N       0.07479   0.46836   0.18179
N          N       0.67521   0.43179   0.21836
N          N       0.82479   0.56821   0.71836
N          N       0.17521   0.06821   0.78164
N          N       0.32479   0.93179   0.28164
N          N       0.93179   0.28164   0.32479
N          N       0.06821   0.78164   0.17521
N          N       0.56821   0.71836   0.82479
N          N       0.43179   0.21836   0.67521
N          N       0.78164   0.17521   0.06821
N          N       0.28164   0.32479   0.93179
N          N       0.21836   0.67521   0.43179
N          N       0.71836   0.82479   0.56821
N          N       0.90645   0.02433   0.96945
N          N       0.59355   0.97567   0.46945
N          N       0.09355   0.52433   0.53055
N          N       0.40645   0.47567   0.03055
N          N       0.96945   0.90645   0.02433
N          N       0.46945   0.59355   0.97567
N          N       0.53055   0.09355   0.52433
N          N       0.03055   0.40645   0.47567
N          N       0.02433   0.96945   0.90645
N          N       0.97567   0.46945   0.59355
N          N       0.52433   0.53055   0.09355
N          N       0.47567   0.03055   0.40645
N          N       0.77433   0.15645   0.28055
N          N       0.72567   0.84355   0.78055
N          N       0.27433   0.34355   0.71945
N          N       0.22567   0.65645   0.21945
N          N       0.65645   0.21945   0.22567
N          N       0.34355   0.71945   0.27433
N          N       0.84355   0.78055   0.72567
N          N       0.15645   0.28055   0.77433
N          N       0.71945   0.27433   0.34355
N          N       0.21945   0.22567   0.65645
N          N       0.28055   0.77433   0.15645
N          N       0.78055   0.72567   0.84355
N          N       0.09355   0.97567   0.03055
N          N       0.40645   0.02433   0.53055
N          N       0.90645   0.47567   0.46945
N          N       0.59355   0.52433   0.96945
N          N       0.03055   0.09355   0.97567
N          N       0.53055   0.40645   0.02433
N          N       0.46945   0.90645   0.47567
N          N       0.96945   0.59355   0.52433
N          N       0.97567   0.03055   0.09355
N          N       0.02433   0.53055   0.40645
N          N       0.47567   0.46945   0.90645
N          N       0.52433   0.96945   0.59355
N          N       0.22567   0.84355   0.71945
N          N       0.27433   0.15645   0.21945
N          N       0.72567   0.65645   0.28055
N          N       0.77433   0.34355   0.78055
N          N       0.34355   0.78055   0.77433
N          N       0.65645   0.28055   0.72567
N          N       0.15645   0.21945   0.27433
N          N       0.84355   0.71945   0.22567
N          N       0.28055   0.72567   0.65645
N          N       0.78055   0.77433   0.34355
N          N       0.71945   0.22567   0.84355
N          N       0.21945   0.27433   0.15645
N          N       0.40645   0.52433   0.46945
N          N       0.09355   0.47567   0.96945
N          N       0.59355   0.02433   0.03055
N          N       0.90645   0.97567   0.53055
N          N       0.46945   0.40645   0.52433
N          N       0.96945   0.09355   0.47567
N          N       0.03055   0.59355   0.02433
N          N       0.53055   0.90645   0.97567
N          N       0.52433   0.46945   0.40645
N          N       0.47567   0.96945   0.09355
N          N       0.02433   0.03055   0.59355
N          N       0.97567   0.53055   0.90645
N          N       0.27433   0.65645   0.78055
N          N       0.22567   0.34355   0.28055
N          N       0.77433   0.84355   0.21945
N          N       0.72567   0.15645   0.71945
N          N       0.15645   0.71945   0.72567
N          N       0.84355   0.21945   0.77433
N          N       0.34355   0.28055   0.22567
N          N       0.65645   0.78055   0.27433
N          N       0.21945   0.77433   0.84355
N          N       0.71945   0.72567   0.15645
N          N       0.78055   0.27433   0.65645
N          N       0.28055   0.22567   0.34355
N          N       0.59355   0.47567   0.53055
N          N       0.90645   0.52433   0.03055
N          N       0.40645   0.97567   0.96945
N          N       0.09355   0.02433   0.46945
N          N       0.53055   0.59355   0.47567
N          N       0.03055   0.90645   0.52433
N          N       0.96945   0.40645   0.97567
N          N       0.46945   0.09355   0.02433
N          N       0.47567   0.53055   0.59355
N          N       0.52433   0.03055   0.90645
N          N       0.97567   0.96945   0.40645
N          N       0.02433   0.46945   0.09355
N          N       0.72567   0.34355   0.21945
N          N       0.77433   0.65645   0.71945
N          N       0.22567   0.15645   0.78055
N          N       0.27433   0.84355   0.28055
N          N       0.84355   0.28055   0.27433
N          N       0.15645   0.78055   0.22567
N          N       0.65645   0.71945   0.77433
N          N       0.34355   0.21945   0.72567
N          N       0.78055   0.22567   0.15645
N          N       0.28055   0.27433   0.84355
N          N       0.21945   0.72567   0.34355
N          N       0.71945   0.77433   0.65645
C          C       0.86774   0.05945   0.00029
C          C       0.63226   0.94055   0.50029
C          C       0.13226   0.55945   0.49971
C          C       0.36774   0.44055   0.99971
C          C       0.00029   0.86774   0.05945
C          C       0.50029   0.63226   0.94055
C          C       0.49971   0.13226   0.55945
C          C       0.99971   0.36774   0.44055
C          C       0.05945   0.00029   0.86774
C          C       0.94055   0.50029   0.63226
C          C       0.55945   0.49971   0.13226
C          C       0.44055   0.99971   0.36774
C          C       0.80945   0.11774   0.24971
C          C       0.69055   0.88226   0.74971
C          C       0.30945   0.38226   0.75029
C          C       0.19055   0.61774   0.25029
C          C       0.61774   0.25029   0.19055
C          C       0.38226   0.75029   0.30945
C          C       0.88226   0.74971   0.69055
C          C       0.11774   0.24971   0.80945
C          C       0.75029   0.30945   0.38226
C          C       0.25029   0.19055   0.61774
C          C       0.24971   0.80945   0.11774
C          C       0.74971   0.69055   0.88226
C          C       0.13226   0.94055   0.99971
C          C       0.36774   0.05945   0.49971
C          C       0.86774   0.44055   0.50029
C          C       0.63226   0.55945   0.00029
C          C       0.99971   0.13226   0.94055
C          C       0.49971   0.36774   0.05945
C          C       0.50029   0.86774   0.44055
C          C       0.00029   0.63226   0.55945
C          C       0.94055   0.99971   0.13226
C          C       0.05945   0.49971   0.36774
C          C       0.44055   0.50029   0.86774
C          C       0.55945   0.00029   0.63226
C          C       0.19055   0.88226   0.75029
C          C       0.30945   0.11774   0.25029
C          C       0.69055   0.61774   0.24971
C          C       0.80945   0.38226   0.74971
C          C       0.38226   0.74971   0.80945
C          C       0.61774   0.24971   0.69055
C          C       0.11774   0.25029   0.30945
C          C       0.88226   0.75029   0.19055
C          C       0.24971   0.69055   0.61774
C          C       0.74971   0.80945   0.38226
C          C       0.75029   0.19055   0.88226
C          C       0.25029   0.30945   0.11774
C          C       0.36774   0.55945   0.50029
C          C       0.13226   0.44055   0.00029
C          C       0.63226   0.05945   0.99971
C          C       0.86774   0.94055   0.49971
C          C       0.50029   0.36774   0.55945
C          C       0.00029   0.13226   0.44055
C          C       0.99971   0.63226   0.05945
C          C       0.49971   0.86774   0.94055
C          C       0.55945   0.50029   0.36774
C          C       0.44055   0.00029   0.13226
C          C       0.05945   0.99971   0.63226
C          C       0.94055   0.49971   0.86774
C          C       0.30945   0.61774   0.74971
C          C       0.19055   0.38226   0.24971
C          C       0.80945   0.88226   0.25029
C          C       0.69055   0.11774   0.75029
C          C       0.11774   0.75029   0.69055
C          C       0.88226   0.25029   0.80945
C          C       0.38226   0.24971   0.19055
C          C       0.61774   0.74971   0.30945
C          C       0.25029   0.80945   0.88226
C          C       0.75029   0.69055   0.11774
C          C       0.74971   0.30945   0.61774
C          C       0.24971   0.19055   0.38226
C          C       0.63226   0.44055   0.49971
C          C       0.86774   0.55945   0.99971
C          C       0.36774   0.94055   0.00029
C          C       0.13226   0.05945   0.50029
C          C       0.49971   0.63226   0.44055
C          C       0.99971   0.86774   0.55945
C          C       0.00029   0.36774   0.94055
C          C       0.50029   0.13226   0.05945
C          C       0.44055   0.49971   0.63226
C          C       0.55945   0.99971   0.86774
C          C       0.94055   0.00029   0.36774
C          C       0.05945   0.50029   0.13226
C          C       0.69055   0.38226   0.25029
C          C       0.80945   0.61774   0.75029
C          C       0.19055   0.11774   0.74971
C          C       0.30945   0.88226   0.24971
C          C       0.88226   0.24971   0.30945
C          C       0.11774   0.74971   0.19055
C          C       0.61774   0.75029   0.80945
C          C       0.38226   0.25029   0.69055
C          C       0.74971   0.19055   0.11774
C          C       0.24971   0.30945   0.88226
C          C       0.25029   0.69055   0.38226
C          C       0.75029   0.80945   0.61774
C          C       0.87966   0.01639   0.91348
C          C       0.62034   0.98361   0.41348
C          C       0.12034   0.51639   0.58652
C          C       0.37966   0.48361   0.08652
C          C       0.91348   0.87966   0.01639
C          C       0.41348   0.62034   0.98361
C          C       0.58652   0.12034   0.51639
C          C       0.08652   0.37966   0.48361
C          C       0.01639   0.91348   0.87966
C          C       0.98361   0.41348   0.62034
C          C       0.51639   0.58652   0.12034
C          C       0.48361   0.08652   0.37966
C          C       0.76639   0.12966   0.33652
C          C       0.73361   0.87034   0.83652
C          C       0.26639   0.37034   0.66348
C          C       0.23361   0.62966   0.16348
C          C       0.62966   0.16348   0.23361
C          C       0.37034   0.66348   0.26639
C          C       0.87034   0.83652   0.73361
C          C       0.12966   0.33652   0.76639
C          C       0.66348   0.26639   0.37034
C          C       0.16348   0.23361   0.62966
C          C       0.33652   0.76639   0.12966
C          C       0.83652   0.73361   0.87034
C          C       0.12034   0.98361   0.08652
C          C       0.37966   0.01639   0.58652
C          C       0.87966   0.48361   0.41348
C          C       0.62034   0.51639   0.91348
C          C       0.08652   0.12034   0.98361
C          C       0.58652   0.37966   0.01639
C          C       0.41348   0.87966   0.48361
C          C       0.91348   0.62034   0.51639
C          C       0.98361   0.08652   0.12034
C          C       0.01639   0.58652   0.37966
C          C       0.48361   0.41348   0.87966
C          C       0.51639   0.91348   0.62034
C          C       0.23361   0.87034   0.66348
C          C       0.26639   0.12966   0.16348
C          C       0.73361   0.62966   0.33652
C          C       0.76639   0.37034   0.83652
C          C       0.37034   0.83652   0.76639
C          C       0.62966   0.33652   0.73361
C          C       0.12966   0.16348   0.26639
C          C       0.87034   0.66348   0.23361
C          C       0.33652   0.73361   0.62966
C          C       0.83652   0.76639   0.37034
C          C       0.66348   0.23361   0.87034
C          C       0.16348   0.26639   0.12966
C          C       0.37966   0.51639   0.41348
C          C       0.12034   0.48361   0.91348
C          C       0.62034   0.01639   0.08652
C          C       0.87966   0.98361   0.58652
C          C       0.41348   0.37966   0.51639
C          C       0.91348   0.12034   0.48361
C          C       0.08652   0.62034   0.01639
C          C       0.58652   0.87966   0.98361
C          C       0.51639   0.41348   0.37966
C          C       0.48361   0.91348   0.12034
C          C       0.01639   0.08652   0.62034
C          C       0.98361   0.58652   0.87966
C          C       0.26639   0.62966   0.83652
C          C       0.23361   0.37034   0.33652
C          C       0.76639   0.87034   0.16348
C          C       0.73361   0.12966   0.66348
C          C       0.12966   0.66348   0.73361
C          C       0.87034   0.16348   0.76639
C          C       0.37034   0.33652   0.23361
C          C       0.62966   0.83652   0.26639
C          C       0.16348   0.76639   0.87034
C          C       0.66348   0.73361   0.12966
C          C       0.83652   0.26639   0.62966
C          C       0.33652   0.23361   0.37034
C          C       0.62034   0.48361   0.58652
C          C       0.87966   0.51639   0.08652
C          C       0.37966   0.98361   0.91348
C          C       0.12034   0.01639   0.41348
C          C       0.58652   0.62034   0.48361
C          C       0.08652   0.87966   0.51639
C          C       0.91348   0.37966   0.98361
C          C       0.41348   0.12034   0.01639
C          C       0.48361   0.58652   0.62034
C          C       0.51639   0.08652   0.87966
C          C       0.98361   0.91348   0.37966
C          C       0.01639   0.41348   0.12034
C          C       0.73361   0.37034   0.16348
C          C       0.76639   0.62966   0.66348
C          C       0.23361   0.12966   0.83652
C          C       0.26639   0.87034   0.33652
C          C       0.87034   0.33652   0.26639
C          C       0.12966   0.83652   0.23361
C          C       0.62966   0.66348   0.76639
C          C       0.37034   0.16348   0.73361
C          C       0.83652   0.23361   0.12966
C          C       0.33652   0.26639   0.87034
C          C       0.16348   0.73361   0.37034
C          C       0.66348   0.76639   0.62966
C          C       0.82606   0.04685   0.91282
C          C       0.67394   0.95315   0.41282
C          C       0.17394   0.54685   0.58718
C          C       0.32606   0.45315   0.08718
C          C       0.91282   0.82606   0.04685
C          C       0.41282   0.67394   0.95315
C          C       0.58718   0.17394   0.54685
C          C       0.08718   0.32606   0.45315
C          C       0.04685   0.91282   0.82606
C          C       0.95315   0.41282   0.67394
C          C       0.54685   0.58718   0.17394
C          C       0.45315   0.08718   0.32606
C          C       0.79685   0.07606   0.33718
C          C       0.70315   0.92394   0.83718
C          C       0.29685   0.42394   0.66282
C          C       0.20315   0.57606   0.16282
C          C       0.57606   0.16282   0.20315
C          C       0.42394   0.66282   0.29685
C          C       0.92394   0.83718   0.70315
C          C       0.07606   0.33718   0.79685
C          C       0.66282   0.29685   0.42394
C          C       0.16282   0.20315   0.57606
C          C       0.33718   0.79685   0.07606
C          C       0.83718   0.70315   0.92394
C          C       0.17394   0.95315   0.08718
C          C       0.32606   0.04685   0.58718
C          C       0.82606   0.45315   0.41282
C          C       0.67394   0.54685   0.91282
C          C       0.08718   0.17394   0.95315
C          C       0.58718   0.32606   0.04685
C          C       0.41282   0.82606   0.45315
C          C       0.91282   0.67394   0.54685
C          C       0.95315   0.08718   0.17394
C          C       0.04685   0.58718   0.32606
C          C       0.45315   0.41282   0.82606
C          C       0.54685   0.91282   0.67394
C          C       0.20315   0.92394   0.66282
C          C       0.29685   0.07606   0.16282
C          C       0.70315   0.57606   0.33718
C          C       0.79685   0.42394   0.83718
C          C       0.42394   0.83718   0.79685
C          C       0.57606   0.33718   0.70315
C          C       0.07606   0.16282   0.29685
C          C       0.92394   0.66282   0.20315
C          C       0.33718   0.70315   0.57606
C          C       0.83718   0.79685   0.42394
C          C       0.66282   0.20315   0.92394
C          C       0.16282   0.29685   0.07606
C          C       0.32606   0.54685   0.41282
C          C       0.17394   0.45315   0.91282
C          C       0.67394   0.04685   0.08718
C          C       0.82606   0.95315   0.58718
C          C       0.41282   0.32606   0.54685
C          C       0.91282   0.17394   0.45315
C          C       0.08718   0.67394   0.04685
C          C       0.58718   0.82606   0.95315
C          C       0.54685   0.41282   0.32606
C          C       0.45315   0.91282   0.17394
C          C       0.04685   0.08718   0.67394
C          C       0.95315   0.58718   0.82606
C          C       0.29685   0.57606   0.83718
C          C       0.20315   0.42394   0.33718
C          C       0.79685   0.92394   0.16282
C          C       0.70315   0.07606   0.66282
C          C       0.07606   0.66282   0.70315
C          C       0.92394   0.16282   0.79685
C          C       0.42394   0.33718   0.20315
C          C       0.57606   0.83718   0.29685
C          C       0.16282   0.79685   0.92394
C          C       0.66282   0.70315   0.07606
C          C       0.83718   0.29685   0.57606
C          C       0.33718   0.20315   0.42394
C          C       0.67394   0.45315   0.58718
C          C       0.82606   0.54685   0.08718
C          C       0.32606   0.95315   0.91282
C          C       0.17394   0.04685   0.41282
C          C       0.58718   0.67394   0.45315
C          C       0.08718   0.82606   0.54685
C          C       0.91282   0.32606   0.95315
C          C       0.41282   0.17394   0.04685
C          C       0.45315   0.58718   0.67394
C          C       0.54685   0.08718   0.82606
C          C       0.95315   0.91282   0.32606
C          C       0.04685   0.41282   0.17394
C          C       0.70315   0.42394   0.16282
C          C       0.79685   0.57606   0.66282
C          C       0.20315   0.07606   0.83718
C          C       0.29685   0.92394   0.33718
C          C       0.92394   0.33718   0.29685
C          C       0.07606   0.83718   0.20315
C          C       0.57606   0.66282   0.79685
C          C       0.42394   0.16282   0.70315
C          C       0.83718   0.20315   0.07606
C          C       0.33718   0.29685   0.92394
C          C       0.16282   0.70315   0.42394
C          C       0.66282   0.79685   0.57606
H          H       0.87260   0.07180   0.03950
H          H       0.62740   0.92820   0.53950
H          H       0.12740   0.57180   0.46050
H          H       0.37260   0.42820   0.96050
H          H       0.03950   0.87260   0.07180
H          H       0.53950   0.62740   0.92820
H          H       0.46050   0.12740   0.57180
H          H       0.96050   0.37260   0.42820
H          H       0.07180   0.03950   0.87260
H          H       0.92820   0.53950   0.62740
H          H       0.57180   0.46050   0.12740
H          H       0.42820   0.96050   0.37260
H          H       0.82180   0.12260   0.21050
H          H       0.67820   0.87740   0.71050
H          H       0.32180   0.37740   0.78950
H          H       0.17820   0.62260   0.28950
H          H       0.62260   0.28950   0.17820
H          H       0.37740   0.78950   0.32180
H          H       0.87740   0.71050   0.67820
H          H       0.12260   0.21050   0.82180
H          H       0.78950   0.32180   0.37740
H          H       0.28950   0.17820   0.62260
H          H       0.21050   0.82180   0.12260
H          H       0.71050   0.67820   0.87740
H          H       0.12740   0.92820   0.96050
H          H       0.37260   0.07180   0.46050
H          H       0.87260   0.42820   0.53950
H          H       0.62740   0.57180   0.03950
H          H       0.96050   0.12740   0.92820
H          H       0.46050   0.37260   0.07180
H          H       0.53950   0.87260   0.42820
H          H       0.03950   0.62740   0.57180
H          H       0.92820   0.96050   0.12740
H          H       0.07180   0.46050   0.37260
H          H       0.42820   0.53950   0.87260
H          H       0.57180   0.03950   0.62740
H          H       0.17820   0.87740   0.78950
H          H       0.32180   0.12260   0.28950
H          H       0.67820   0.62260   0.21050
H          H       0.82180   0.37740   0.71050
H          H       0.37740   0.71050   0.82180
H          H       0.62260   0.21050   0.67820
H          H       0.12260   0.28950   0.32180
H          H       0.87740   0.78950   0.17820
H          H       0.21050   0.67820   0.62260
H          H       0.71050   0.82180   0.37740
H          H       0.78950   0.17820   0.87740
H          H       0.28950   0.32180   0.12260
H          H       0.37260   0.57180   0.53950
H          H       0.12740   0.42820   0.03950
H          H       0.62740   0.07180   0.96050
H          H       0.87260   0.92820   0.46050
H          H       0.53950   0.37260   0.57180
H          H       0.03950   0.12740   0.42820
H          H       0.96050   0.62740   0.07180
H          H       0.46050   0.87260   0.92820
H          H       0.57180   0.53950   0.37260
H          H       0.42820   0.03950   0.12740
H          H       0.07180   0.96050   0.62740
H          H       0.92820   0.46050   0.87260
H          H       0.32180   0.62260   0.71050
H          H       0.17820   0.37740   0.21050
H          H       0.82180   0.87740   0.28950
H          H       0.67820   0.12260   0.78950
H          H       0.12260   0.78950   0.67820
H          H       0.87740   0.28950   0.82180
H          H       0.37740   0.21050   0.17820
H          H       0.62260   0.71050   0.32180
H          H       0.28950   0.82180   0.87740
H          H       0.78950   0.67820   0.12260
H          H       0.71050   0.32180   0.62260
H          H       0.21050   0.17820   0.37740
H          H       0.62740   0.42820   0.46050
H          H       0.87260   0.57180   0.96050
H          H       0.37260   0.92820   0.03950
H          H       0.12740   0.07180   0.53950
H          H       0.46050   0.62740   0.42820
H          H       0.96050   0.87260   0.57180
H          H       0.03950   0.37260   0.92820
H          H       0.53950   0.12740   0.07180
H          H       0.42820   0.46050   0.62740
H          H       0.57180   0.96050   0.87260
H          H       0.92820   0.03950   0.37260
H          H       0.07180   0.53950   0.12740
H          H       0.67820   0.37740   0.28950
H          H       0.82180   0.62260   0.78950
H          H       0.17820   0.12260   0.71050
H          H       0.32180   0.87740   0.21050
H          H       0.87740   0.21050   0.32180
H          H       0.12260   0.71050   0.17820
H          H       0.62260   0.78950   0.82180
H          H       0.37740   0.28950   0.67820
H          H       0.71050   0.17820   0.12260
H          H       0.21050   0.32180   0.87740
H          H       0.28950   0.67820   0.37740
H          H       0.78950   0.82180   0.62260
H          H       0.90000   0.99560   0.88420
H          H       0.60000   0.00440   0.38420
H          H       0.10000   0.49560   0.61580
H          H       0.40000   0.50440   0.11580
H          H       0.88420   0.90000   0.99560
H          H       0.38420   0.60000   0.00440
H          H       0.61580   0.10000   0.49560
H          H       0.11580   0.40000   0.50440
H          H       0.99560   0.88420   0.90000
H          H       0.00440   0.38420   0.60000
H          H       0.49560   0.61580   0.10000
H          H       0.50440   0.11580   0.40000
H          H       0.74560   0.15000   0.36580
H          H       0.75440   0.85000   0.86580
H          H       0.24560   0.35000   0.63420
H          H       0.25440   0.65000   0.13420
H          H       0.65000   0.13420   0.25440
H          H       0.35000   0.63420   0.24560
H          H       0.85000   0.86580   0.75440
H          H       0.15000   0.36580   0.74560
H          H       0.63420   0.24560   0.35000
H          H       0.13420   0.25440   0.65000
H          H       0.36580   0.74560   0.15000
H          H       0.86580   0.75440   0.85000
H          H       0.10000   0.00440   0.11580
H          H       0.40000   0.99560   0.61580
H          H       0.90000   0.50440   0.38420
H          H       0.60000   0.49560   0.88420
H          H       0.11580   0.10000   0.00440
H          H       0.61580   0.40000   0.99560
H          H       0.38420   0.90000   0.50440
H          H       0.88420   0.60000   0.49560
H          H       0.00440   0.11580   0.10000
H          H       0.99560   0.61580   0.40000
H          H       0.50440   0.38420   0.90000
H          H       0.49560   0.88420   0.60000
H          H       0.25440   0.85000   0.63420
H          H       0.24560   0.15000   0.13420
H          H       0.75440   0.65000   0.36580
H          H       0.74560   0.35000   0.86580
H          H       0.35000   0.86580   0.74560
H          H       0.65000   0.36580   0.75440
H          H       0.15000   0.13420   0.24560
H          H       0.85000   0.63420   0.25440
H          H       0.36580   0.75440   0.65000
H          H       0.86580   0.74560   0.35000
H          H       0.63420   0.25440   0.85000
H          H       0.13420   0.24560   0.15000
H          H       0.40000   0.49560   0.38420
H          H       0.10000   0.50440   0.88420
H          H       0.60000   0.99560   0.11580
H          H       0.90000   0.00440   0.61580
H          H       0.38420   0.40000   0.49560
H          H       0.88420   0.10000   0.50440
H          H       0.11580   0.60000   0.99560
H          H       0.61580   0.90000   0.00440
H          H       0.49560   0.38420   0.40000
H          H       0.50440   0.88420   0.10000
H          H       0.99560   0.11580   0.60000
H          H       0.00440   0.61580   0.90000
H          H       0.24560   0.65000   0.86580
H          H       0.25440   0.35000   0.36580
H          H       0.74560   0.85000   0.13420
H          H       0.75440   0.15000   0.63420
H          H       0.15000   0.63420   0.75440
H          H       0.85000   0.13420   0.74560
H          H       0.35000   0.36580   0.25440
H          H       0.65000   0.86580   0.24560
H          H       0.13420   0.74560   0.85000
H          H       0.63420   0.75440   0.15000
H          H       0.86580   0.24560   0.65000
H          H       0.36580   0.25440   0.35000
H          H       0.60000   0.50440   0.61580
H          H       0.90000   0.49560   0.11580
H          H       0.40000   0.00440   0.88420
H          H       0.10000   0.99560   0.38420
H          H       0.61580   0.60000   0.50440
H          H       0.11580   0.90000   0.49560
H          H       0.88420   0.40000   0.00440
H          H       0.38420   0.10000   0.99560
H          H       0.50440   0.61580   0.60000
H          H       0.49560   0.11580   0.90000
H          H       0.00440   0.88420   0.40000
H          H       0.99560   0.38420   0.10000
H          H       0.75440   0.35000   0.13420
H          H       0.74560   0.65000   0.63420
H          H       0.25440   0.15000   0.86580
H          H       0.24560   0.85000   0.36580
H          H       0.85000   0.36580   0.24560
H          H       0.15000   0.86580   0.25440
H          H       0.65000   0.63420   0.74560
H          H       0.35000   0.13420   0.75440
H          H       0.86580   0.25440   0.15000
H          H       0.36580   0.24560   0.85000
H          H       0.13420   0.75440   0.35000
H          H       0.63420   0.74560   0.65000
H          H       0.79860   0.05180   0.88230
H          H       0.70140   0.94820   0.38230
H          H       0.20140   0.55180   0.61770
H          H       0.29860   0.44820   0.11770
H          H       0.88230   0.79860   0.05180
H          H       0.38230   0.70140   0.94820
H          H       0.61770   0.20140   0.55180
H          H       0.11770   0.29860   0.44820
H          H       0.05180   0.88230   0.79860
H          H       0.94820   0.38230   0.70140
H          H       0.55180   0.61770   0.20140
H          H       0.44820   0.11770   0.29860
H          H       0.80180   0.04860   0.36770
H          H       0.69820   0.95140   0.86770
H          H       0.30180   0.45140   0.63230
H          H       0.19820   0.54860   0.13230
H          H       0.54860   0.13230   0.19820
H          H       0.45140   0.63230   0.30180
H          H       0.95140   0.86770   0.69820
H          H       0.04860   0.36770   0.80180
H          H       0.63230   0.30180   0.45140
H          H       0.13230   0.19820   0.54860
H          H       0.36770   0.80180   0.04860
H          H       0.86770   0.69820   0.95140
H          H       0.20140   0.94820   0.11770
H          H       0.29860   0.05180   0.61770
H          H       0.79860   0.44820   0.38230
H          H       0.70140   0.55180   0.88230
H          H       0.11770   0.20140   0.94820
H          H       0.61770   0.29860   0.05180
H          H       0.38230   0.79860   0.44820
H          H       0.88230   0.70140   0.55180
H          H       0.94820   0.11770   0.20140
H          H       0.05180   0.61770   0.29860
H          H       0.44820   0.38230   0.79860
H          H       0.55180   0.88230   0.70140
H          H       0.19820   0.95140   0.63230
H          H       0.30180   0.04860   0.13230
H          H       0.69820   0.54860   0.36770
H          H       0.80180   0.45140   0.86770
H          H       0.45140   0.86770   0.80180
H          H       0.54860   0.36770   0.69820
H          H       0.04860   0.13230   0.30180
H          H       0.95140   0.63230   0.19820
H          H       0.36770   0.69820   0.54860
H          H       0.86770   0.80180   0.45140
H          H       0.63230   0.19820   0.95140
H          H       0.13230   0.30180   0.04860
H          H       0.29860   0.55180   0.38230
H          H       0.20140   0.44820   0.88230
H          H       0.70140   0.05180   0.11770
H          H       0.79860   0.94820   0.61770
H          H       0.38230   0.29860   0.55180
H          H       0.88230   0.20140   0.44820
H          H       0.11770   0.70140   0.05180
H          H       0.61770   0.79860   0.94820
H          H       0.55180   0.38230   0.29860
H          H       0.44820   0.88230   0.20140
H          H       0.05180   0.11770   0.70140
H          H       0.94820   0.61770   0.79860
H          H       0.30180   0.54860   0.86770
H          H       0.19820   0.45140   0.36770
H          H       0.80180   0.95140   0.13230
H          H       0.69820   0.04860   0.63230
H          H       0.04860   0.63230   0.69820
H          H       0.95140   0.13230   0.80180
H          H       0.45140   0.36770   0.19820
H          H       0.54860   0.86770   0.30180
H          H       0.13230   0.80180   0.95140
H          H       0.63230   0.69820   0.04860
H          H       0.86770   0.30180   0.54860
H          H       0.36770   0.19820   0.45140
H          H       0.70140   0.44820   0.61770
H          H       0.79860   0.55180   0.11770
H          H       0.29860   0.94820   0.88230
H          H       0.20140   0.05180   0.38230
H          H       0.61770   0.70140   0.44820
H          H       0.11770   0.79860   0.55180
H          H       0.88230   0.29860   0.94820
H          H       0.38230   0.20140   0.05180
H          H       0.44820   0.61770   0.70140
H          H       0.55180   0.11770   0.79860
H          H       0.94820   0.88230   0.29860
H          H       0.05180   0.38230   0.20140
H          H       0.69820   0.45140   0.13230
H          H       0.80180   0.54860   0.63230
H          H       0.19820   0.04860   0.86770
H          H       0.30180   0.95140   0.36770
H          H       0.95140   0.36770   0.30180
H          H       0.04860   0.86770   0.19820
H          H       0.54860   0.63230   0.80180
H          H       0.45140   0.13230   0.69820
H          H       0.86770   0.19820   0.04860
H          H       0.36770   0.30180   0.95140
H          H       0.13230   0.69820   0.45140
H          H       0.63230   0.80180   0.54860
