data_image0
_chemical_formula_structural       C18H18C36H18C18H18C18H18C36H18C18H18C36H18C18H18C36H18C18H18Co18N72
_chemical_formula_sum              "C252 H180 Co18 N72"
_cell_length_a       22.9437
_cell_length_b       22.9437
_cell_length_c       15.747
_cell_angle_alpha    90
_cell_angle_beta     90
_cell_angle_gamma    120

_space_group_name_H-M_alt    "P 1"
_space_group_IT_number       1

loop_
  _space_group_symop_operation_xyz
  'x, y, z'

loop_
  _atom_site_type_symbol
  _atom_site_label
  _atom_site_symmetry_multiplicity
  _atom_site_fract_x
  _atom_site_fract_y
  _atom_site_fract_z
  _atom_site_occupancy
  C   C1        1.0  0.32940  0.02880  0.17560  1.0000
  C   C2        1.0  0.97120  0.30060  0.17560  1.0000
  C   C3        1.0  0.69940  0.67060  0.17560  1.0000
  C   C4        1.0  0.67060  0.97120  0.82440  1.0000
  C   C5        1.0  0.02880  0.69940  0.82440  1.0000
  C   C6        1.0  0.30060  0.32940  0.82440  1.0000
  C   C7        1.0  0.99607  0.36213  0.50893  1.0000
  C   C8        1.0  0.63787  0.63393  0.50893  1.0000
  C   C9        1.0  0.36607  0.00393  0.50893  1.0000
  C   C10       1.0  0.33727  0.30453  0.15773  1.0000
  C   C11       1.0  0.69547  0.03273  0.15773  1.0000
  C   C12       1.0  0.96727  0.66273  0.15773  1.0000
  C   C13       1.0  0.66273  0.69547  0.84227  1.0000
  C   C14       1.0  0.30453  0.96727  0.84227  1.0000
  C   C15       1.0  0.03273  0.33727  0.84227  1.0000
  C   C16       1.0  0.00393  0.63787  0.49107  1.0000
  C   C17       1.0  0.36213  0.36607  0.49107  1.0000
  C   C18       1.0  0.63393  0.99607  0.49107  1.0000
  H   H1        1.0  0.33330  0.07100  0.17140  1.0000
  H   H2        1.0  0.92900  0.26230  0.17140  1.0000
  H   H3        1.0  0.73770  0.66670  0.17140  1.0000
  H   H4        1.0  0.66670  0.92900  0.82860  1.0000
  H   H5        1.0  0.07100  0.73770  0.82860  1.0000
  H   H6        1.0  0.26230  0.33330  0.82860  1.0000
  H   H7        1.0  0.99997  0.40433  0.50473  1.0000
  H   H8        1.0  0.59567  0.59563  0.50473  1.0000
  H   H9        1.0  0.40437  0.00003  0.50473  1.0000
  H   H10       1.0  0.33337  0.26233  0.16193  1.0000
  H   H11       1.0  0.73767  0.07103  0.16193  1.0000
  H   H12       1.0  0.92897  0.66663  0.16193  1.0000
  H   H13       1.0  0.66663  0.73767  0.83807  1.0000
  H   H14       1.0  0.26233  0.92897  0.83807  1.0000
  H   H15       1.0  0.07103  0.33337  0.83807  1.0000
  H   H16       1.0  0.00003  0.59567  0.49527  1.0000
  H   H17       1.0  0.40433  0.40437  0.49527  1.0000
  H   H18       1.0  0.59563  0.99997  0.49527  1.0000
  C   C19       1.0  0.33670  0.94560  0.22340  1.0000
  C   C20       1.0  0.05440  0.39110  0.22340  1.0000
  C   C21       1.0  0.60890  0.66330  0.22340  1.0000
  C   C22       1.0  0.66330  0.05440  0.77660  1.0000
  C   C23       1.0  0.94560  0.60890  0.77660  1.0000
  C   C24       1.0  0.39110  0.33670  0.77660  1.0000
  C   C25       1.0  0.00337  0.27893  0.55673  1.0000
  C   C26       1.0  0.72107  0.72443  0.55673  1.0000
  C   C27       1.0  0.27557  0.99663  0.55673  1.0000
  C   C28       1.0  0.32997  0.38773  0.10993  1.0000
  C   C29       1.0  0.61227  0.94223  0.10993  1.0000
  C   C30       1.0  0.05777  0.67003  0.10993  1.0000
  C   C31       1.0  0.67003  0.61227  0.89007  1.0000
  C   C32       1.0  0.38773  0.05777  0.89007  1.0000
  C   C33       1.0  0.94223  0.32997  0.89007  1.0000
  C   C34       1.0  0.99663  0.72107  0.44327  1.0000
  C   C35       1.0  0.27893  0.27557  0.44327  1.0000
  C   C36       1.0  0.72443  0.00337  0.44327  1.0000
  C   C37       1.0  0.34760  0.90060  0.27140  1.0000
  C   C38       1.0  0.09940  0.44700  0.27140  1.0000
  C   C39       1.0  0.55300  0.65240  0.27140  1.0000
  C   C40       1.0  0.65240  0.09940  0.72860  1.0000
  C   C41       1.0  0.90060  0.55300  0.72860  1.0000
  C   C42       1.0  0.44700  0.34760  0.72860  1.0000
  C   C43       1.0  0.01427  0.23393  0.60473  1.0000
  C   C44       1.0  0.76607  0.78033  0.60473  1.0000
  C   C45       1.0  0.21967  0.98573  0.60473  1.0000
  C   C46       1.0  0.31907  0.43273  0.06193  1.0000
  C   C47       1.0  0.56727  0.88633  0.06193  1.0000
  C   C48       1.0  0.11367  0.68093  0.06193  1.0000
  C   C49       1.0  0.68093  0.56727  0.93807  1.0000
  C   C50       1.0  0.43273  0.11367  0.93807  1.0000
  C   C51       1.0  0.88633  0.31907  0.93807  1.0000
  C   C52       1.0  0.98573  0.76607  0.39527  1.0000
  C   C53       1.0  0.23393  0.21967  0.39527  1.0000
  C   C54       1.0  0.78033  0.01427  0.39527  1.0000
  H   H19       1.0  0.36750  0.91170  0.32490  1.0000
  H   H20       1.0  0.08830  0.45580  0.32490  1.0000
  H   H21       1.0  0.54420  0.63250  0.32490  1.0000
  H   H22       1.0  0.63250  0.08830  0.67510  1.0000
  H   H23       1.0  0.91170  0.54420  0.67510  1.0000
  H   H24       1.0  0.45580  0.36750  0.67510  1.0000
  H   H25       1.0  0.03417  0.24503  0.65823  1.0000
  H   H26       1.0  0.75497  0.78913  0.65823  1.0000
  H   H27       1.0  0.21087  0.96583  0.65823  1.0000
  H   H28       1.0  0.29917  0.42163  0.00843  1.0000
  H   H29       1.0  0.57837  0.87753  0.00843  1.0000
  H   H30       1.0  0.12247  0.70083  0.00843  1.0000
  H   H31       1.0  0.70083  0.57837  0.99157  1.0000
  H   H32       1.0  0.42163  0.12247  0.99157  1.0000
  H   H33       1.0  0.87753  0.29917  0.99157  1.0000
  H   H34       1.0  0.96583  0.75497  0.34177  1.0000
  H   H35       1.0  0.24503  0.21087  0.34177  1.0000
  H   H36       1.0  0.78913  0.03417  0.34177  1.0000
  C   C55       1.0  0.32700  0.83940  0.23450  1.0000
  C   C56       1.0  0.16060  0.48760  0.23450  1.0000
  C   C57       1.0  0.51240  0.67300  0.23450  1.0000
  C   C58       1.0  0.67300  0.16060  0.76550  1.0000
  C   C59       1.0  0.83940  0.51240  0.76550  1.0000
  C   C60       1.0  0.48760  0.32700  0.76550  1.0000
  C   C61       1.0  0.99367  0.17273  0.56783  1.0000
  C   C62       1.0  0.82727  0.82093  0.56783  1.0000
  C   C63       1.0  0.17907  0.00633  0.56783  1.0000
  C   C64       1.0  0.33967  0.49393  0.09883  1.0000
  C   C65       1.0  0.50607  0.84573  0.09883  1.0000
  C   C66       1.0  0.15427  0.66033  0.09883  1.0000
  C   C67       1.0  0.66033  0.50607  0.90117  1.0000
  C   C68       1.0  0.49393  0.15427  0.90117  1.0000
  C   C69       1.0  0.84573  0.33967  0.90117  1.0000
  C   C70       1.0  0.00633  0.82727  0.43217  1.0000
  C   C71       1.0  0.17273  0.17907  0.43217  1.0000
  C   C72       1.0  0.82093  0.99367  0.43217  1.0000
  H   H37       1.0  0.33460  0.80850  0.26350  1.0000
  H   H38       1.0  0.19150  0.52610  0.26350  1.0000
  H   H39       1.0  0.47390  0.66540  0.26350  1.0000
  H   H40       1.0  0.66540  0.19150  0.73650  1.0000
  H   H41       1.0  0.80850  0.47390  0.73650  1.0000
  H   H42       1.0  0.52610  0.33460  0.73650  1.0000
  H   H43       1.0  0.00127  0.14183  0.59683  1.0000
  H   H44       1.0  0.85817  0.85943  0.59683  1.0000
  H   H45       1.0  0.14057  0.99873  0.59683  1.0000
  H   H46       1.0  0.33207  0.52483  0.06983  1.0000
  H   H47       1.0  0.47517  0.80723  0.06983  1.0000
  H   H48       1.0  0.19277  0.66793  0.06983  1.0000
  H   H49       1.0  0.66793  0.47517  0.93017  1.0000
  H   H50       1.0  0.52483  0.19277  0.93017  1.0000
  H   H51       1.0  0.80723  0.33207  0.93017  1.0000
  H   H52       1.0  0.99873  0.85817  0.40317  1.0000
  H   H53       1.0  0.14183  0.14057  0.40317  1.0000
  H   H54       1.0  0.85943  0.00127  0.40317  1.0000
  C   C73       1.0  0.39260  0.20060  0.33940  1.0000
  C   C74       1.0  0.79940  0.19200  0.33940  1.0000
  C   C75       1.0  0.80800  0.60740  0.33940  1.0000
  C   C76       1.0  0.60740  0.79940  0.66060  1.0000
  C   C77       1.0  0.20060  0.80800  0.66060  1.0000
  C   C78       1.0  0.19200  0.39260  0.66060  1.0000
  C   C79       1.0  0.05927  0.53393  0.67273  1.0000
  C   C80       1.0  0.46607  0.52533  0.67273  1.0000
  C   C81       1.0  0.47467  0.94073  0.67273  1.0000
  C   C82       1.0  0.27407  0.13273  0.99393  1.0000
  C   C83       1.0  0.86727  0.14133  0.99393  1.0000
  C   C84       1.0  0.85867  0.72593  0.99393  1.0000
  C   C85       1.0  0.72593  0.86727  0.00607  1.0000
  C   C86       1.0  0.13273  0.85867  0.00607  1.0000
  C   C87       1.0  0.14133  0.27407  0.00607  1.0000
  C   C88       1.0  0.94073  0.46607  0.32727  1.0000
  C   C89       1.0  0.53393  0.47467  0.32727  1.0000
  C   C90       1.0  0.52533  0.05927  0.32727  1.0000
  H   H55       1.0  0.36590  0.18910  0.38780  1.0000
  H   H56       1.0  0.81090  0.17680  0.38780  1.0000
  H   H57       1.0  0.82320  0.63410  0.38780  1.0000
  H   H58       1.0  0.63410  0.81090  0.61220  1.0000
  H   H59       1.0  0.18910  0.82320  0.61220  1.0000
  H   H60       1.0  0.17680  0.36590  0.61220  1.0000
  H   H61       1.0  0.03257  0.52243  0.72113  1.0000
  H   H62       1.0  0.47757  0.51013  0.72113  1.0000
  H   H63       1.0  0.48987  0.96743  0.72113  1.0000
  H   H64       1.0  0.30077  0.14423  0.94553  1.0000
  H   H65       1.0  0.85577  0.15653  0.94553  1.0000
  H   H66       1.0  0.84347  0.69923  0.94553  1.0000
  H   H67       1.0  0.69923  0.85577  0.05447  1.0000
  H   H68       1.0  0.14423  0.84347  0.05447  1.0000
  H   H69       1.0  0.15653  0.30077  0.05447  1.0000
  H   H70       1.0  0.96743  0.47757  0.27887  1.0000
  H   H71       1.0  0.52243  0.48987  0.27887  1.0000
  H   H72       1.0  0.51013  0.03257  0.27887  1.0000
  C   C91       1.0  0.45220  0.19570  0.23770  1.0000
  C   C92       1.0  0.80430  0.25650  0.23770  1.0000
  C   C93       1.0  0.74350  0.54780  0.23770  1.0000
  C   C94       1.0  0.54780  0.80430  0.76230  1.0000
  C   C95       1.0  0.19570  0.74350  0.76230  1.0000
  C   C96       1.0  0.25650  0.45220  0.76230  1.0000
  C   C97       1.0  0.11887  0.52903  0.57103  1.0000
  C   C98       1.0  0.47097  0.58983  0.57103  1.0000
  C   C99       1.0  0.41017  0.88113  0.57103  1.0000
  C   C100      1.0  0.21447  0.13763  0.09563  1.0000
  C   C101      1.0  0.86237  0.07683  0.09563  1.0000
  C   C102      1.0  0.92317  0.78553  0.09563  1.0000
  C   C103      1.0  0.78553  0.86237  0.90437  1.0000
  C   C104      1.0  0.13763  0.92317  0.90437  1.0000
  C   C105      1.0  0.07683  0.21447  0.90437  1.0000
  C   C106      1.0  0.88113  0.47097  0.42897  1.0000
  C   C107      1.0  0.52903  0.41017  0.42897  1.0000
  C   C108      1.0  0.58983  0.11887  0.42897  1.0000
  C   C109      1.0  0.48700  0.17940  0.18000  1.0000
  C   C110      1.0  0.82060  0.30760  0.18000  1.0000
  C   C111      1.0  0.69240  0.51300  0.18000  1.0000
  C   C112      1.0  0.51300  0.82060  0.82000  1.0000
  C   C113      1.0  0.17940  0.69240  0.82000  1.0000
  C   C114      1.0  0.30760  0.48700  0.82000  1.0000
  C   C115      1.0  0.15367  0.51273  0.51333  1.0000
  C   C116      1.0  0.48727  0.64093  0.51333  1.0000
  C   C117      1.0  0.35907  0.84633  0.51333  1.0000
  C   C118      1.0  0.17967  0.15393  0.15333  1.0000
  C   C119      1.0  0.84607  0.02573  0.15333  1.0000
  C   C120      1.0  0.97427  0.82033  0.15333  1.0000
  C   C121      1.0  0.82033  0.84607  0.84667  1.0000
  C   C122      1.0  0.15393  0.97427  0.84667  1.0000
  C   C123      1.0  0.02573  0.17967  0.84667  1.0000
  C   C124      1.0  0.84633  0.48727  0.48667  1.0000
  C   C125      1.0  0.51273  0.35907  0.48667  1.0000
  C   C126      1.0  0.64093  0.15367  0.48667  1.0000
  H   H73       1.0  0.48630  0.13850  0.18290  1.0000
  H   H74       1.0  0.86150  0.34780  0.18290  1.0000
  H   H75       1.0  0.65220  0.51370  0.18290  1.0000
  H   H76       1.0  0.51370  0.86150  0.81710  1.0000
  H   H77       1.0  0.13850  0.65220  0.81710  1.0000
  H   H78       1.0  0.34780  0.48630  0.81710  1.0000
  H   H79       1.0  0.15297  0.47183  0.51623  1.0000
  H   H80       1.0  0.52817  0.68113  0.51623  1.0000
  H   H81       1.0  0.31887  0.84703  0.51623  1.0000
  H   H82       1.0  0.18037  0.19483  0.15043  1.0000
  H   H83       1.0  0.80517  0.98553  0.15043  1.0000
  H   H84       1.0  0.01447  0.81963  0.15043  1.0000
  H   H85       1.0  0.81963  0.80517  0.84957  1.0000
  H   H86       1.0  0.19483  0.01447  0.84957  1.0000
  H   H87       1.0  0.98553  0.18037  0.84957  1.0000
  H   H88       1.0  0.84703  0.52817  0.48377  1.0000
  H   H89       1.0  0.47183  0.31887  0.48377  1.0000
  H   H90       1.0  0.68113  0.15297  0.48377  1.0000
  C   C127      1.0  0.52280  0.22580  0.11810  1.0000
  C   C128      1.0  0.77420  0.29700  0.11810  1.0000
  C   C129      1.0  0.70300  0.47720  0.11810  1.0000
  C   C130      1.0  0.47720  0.77420  0.88190  1.0000
  C   C131      1.0  0.22580  0.70300  0.88190  1.0000
  C   C132      1.0  0.29700  0.52280  0.88190  1.0000
  C   C133      1.0  0.18947  0.55913  0.45143  1.0000
  C   C134      1.0  0.44087  0.63033  0.45143  1.0000
  C   C135      1.0  0.36967  0.81053  0.45143  1.0000
  C   C136      1.0  0.14387  0.10753  0.21523  1.0000
  C   C137      1.0  0.89247  0.03633  0.21523  1.0000
  C   C138      1.0  0.96367  0.85613  0.21523  1.0000
  C   C139      1.0  0.85613  0.89247  0.78477  1.0000
  C   C140      1.0  0.10753  0.96367  0.78477  1.0000
  C   C141      1.0  0.03633  0.14387  0.78477  1.0000
  C   C142      1.0  0.81053  0.44087  0.54857  1.0000
  C   C143      1.0  0.55913  0.36967  0.54857  1.0000
  C   C144      1.0  0.63033  0.18947  0.54857  1.0000
  H   H91       1.0  0.54760  0.21670  0.07890  1.0000
  H   H92       1.0  0.78330  0.33090  0.07890  1.0000
  H   H93       1.0  0.66910  0.45240  0.07890  1.0000
  H   H94       1.0  0.45240  0.78330  0.92110  1.0000
  H   H95       1.0  0.21670  0.66910  0.92110  1.0000
  H   H96       1.0  0.33090  0.54760  0.92110  1.0000
  H   H97       1.0  0.21427  0.55003  0.41223  1.0000
  H   H98       1.0  0.44997  0.66423  0.41223  1.0000
  H   H99       1.0  0.33577  0.78573  0.41223  1.0000
  H   H100      1.0  0.11907  0.11663  0.25443  1.0000
  H   H101      1.0  0.88337  0.00243  0.25443  1.0000
  H   H102      1.0  0.99757  0.88093  0.25443  1.0000
  H   H103      1.0  0.88093  0.88337  0.74557  1.0000
  H   H104      1.0  0.11663  0.99757  0.74557  1.0000
  H   H105      1.0  0.00243  0.11907  0.74557  1.0000
  H   H106      1.0  0.78573  0.44997  0.58777  1.0000
  H   H107      1.0  0.55003  0.33577  0.58777  1.0000
  H   H108      1.0  0.66423  0.21427  0.58777  1.0000
  C   C145      1.0  0.52910  0.11910  0.43390  1.0000
  C   C146      1.0  0.88090  0.41000  0.43390  1.0000
  C   C147      1.0  0.59000  0.47090  0.43390  1.0000
  C   C148      1.0  0.47090  0.88090  0.56610  1.0000
  C   C149      1.0  0.11910  0.59000  0.56610  1.0000
  C   C150      1.0  0.41000  0.52910  0.56610  1.0000
  C   C151      1.0  0.19577  0.45243  0.76723  1.0000
  C   C152      1.0  0.54757  0.74333  0.76723  1.0000
  C   C153      1.0  0.25667  0.80423  0.76723  1.0000
  C   C154      1.0  0.13757  0.21423  0.89943  1.0000
  C   C155      1.0  0.78577  0.92333  0.89943  1.0000
  C   C156      1.0  0.07667  0.86243  0.89943  1.0000
  C   C157      1.0  0.86243  0.78577  0.10057  1.0000
  C   C158      1.0  0.21423  0.07667  0.10057  1.0000
  C   C159      1.0  0.92333  0.13757  0.10057  1.0000
  C   C160      1.0  0.80423  0.54757  0.23277  1.0000
  C   C161      1.0  0.45243  0.25667  0.23277  1.0000
  C   C162      1.0  0.74333  0.19577  0.23277  1.0000
  C   C163      1.0  0.51830  0.15540  0.49650  1.0000
  C   C164      1.0  0.84460  0.36290  0.49650  1.0000
  C   C165      1.0  0.63710  0.48170  0.49650  1.0000
  C   C166      1.0  0.48170  0.84460  0.50350  1.0000
  C   C167      1.0  0.15540  0.63710  0.50350  1.0000
  C   C168      1.0  0.36290  0.51830  0.50350  1.0000
  C   C169      1.0  0.18497  0.48873  0.82983  1.0000
  C   C170      1.0  0.51127  0.69623  0.82983  1.0000
  C   C171      1.0  0.30377  0.81503  0.82983  1.0000
  C   C172      1.0  0.14837  0.17793  0.83683  1.0000
  C   C173      1.0  0.82207  0.97043  0.83683  1.0000
  C   C174      1.0  0.02957  0.85163  0.83683  1.0000
  C   C175      1.0  0.85163  0.82207  0.16317  1.0000
  C   C176      1.0  0.17793  0.02957  0.16317  1.0000
  C   C177      1.0  0.97043  0.14837  0.16317  1.0000
  C   C178      1.0  0.81503  0.51127  0.17017  1.0000
  C   C179      1.0  0.48873  0.30377  0.17017  1.0000
  C   C180      1.0  0.69623  0.18497  0.17017  1.0000
  H   H109      1.0  0.47850  0.15660  0.49950  1.0000
  H   H110      1.0  0.84340  0.32190  0.49950  1.0000
  H   H111      1.0  0.67810  0.52150  0.49950  1.0000
  H   H112      1.0  0.52150  0.84340  0.50050  1.0000
  H   H113      1.0  0.15660  0.67810  0.50050  1.0000
  H   H114      1.0  0.32190  0.47850  0.50050  1.0000
  H   H115      1.0  0.14517  0.48993  0.83283  1.0000
  H   H116      1.0  0.51007  0.65523  0.83283  1.0000
  H   H117      1.0  0.34477  0.85483  0.83283  1.0000
  H   H118      1.0  0.18817  0.17673  0.83383  1.0000
  H   H119      1.0  0.82327  0.01143  0.83383  1.0000
  H   H120      1.0  0.98857  0.81183  0.83383  1.0000
  H   H121      1.0  0.81183  0.82327  0.16617  1.0000
  H   H122      1.0  0.17673  0.98857  0.16617  1.0000
  H   H123      1.0  0.01143  0.18817  0.16617  1.0000
  H   H124      1.0  0.85483  0.51007  0.16717  1.0000
  H   H125      1.0  0.48993  0.34477  0.16717  1.0000
  H   H126      1.0  0.65523  0.14517  0.16717  1.0000
  C   C181      1.0  0.56960  0.18930  0.55380  1.0000
  C   C182      1.0  0.81070  0.38030  0.55380  1.0000
  C   C183      1.0  0.61970  0.43040  0.55380  1.0000
  C   C184      1.0  0.43040  0.81070  0.44620  1.0000
  C   C185      1.0  0.18930  0.61970  0.44620  1.0000
  C   C186      1.0  0.38030  0.56960  0.44620  1.0000
  C   C187      1.0  0.23627  0.52263  0.88713  1.0000
  C   C188      1.0  0.47737  0.71363  0.88713  1.0000
  C   C189      1.0  0.28637  0.76373  0.88713  1.0000
  C   C190      1.0  0.09707  0.14403  0.77953  1.0000
  C   C191      1.0  0.85597  0.95303  0.77953  1.0000
  C   C192      1.0  0.04697  0.90293  0.77953  1.0000
  C   C193      1.0  0.90293  0.85597  0.22047  1.0000
  C   C194      1.0  0.14403  0.04697  0.22047  1.0000
  C   C195      1.0  0.95303  0.09707  0.22047  1.0000
  C   C196      1.0  0.76373  0.47737  0.11287  1.0000
  C   C197      1.0  0.52263  0.28637  0.11287  1.0000
  C   C198      1.0  0.71363  0.23627  0.11287  1.0000
  H   H127      1.0  0.56350  0.21300  0.59750  1.0000
  H   H128      1.0  0.78700  0.35050  0.59750  1.0000
  H   H129      1.0  0.64950  0.43650  0.59750  1.0000
  H   H130      1.0  0.43650  0.78700  0.40250  1.0000
  H   H131      1.0  0.21300  0.64950  0.40250  1.0000
  H   H132      1.0  0.35050  0.56350  0.40250  1.0000
  H   H133      1.0  0.23017  0.54633  0.93083  1.0000
  H   H134      1.0  0.45367  0.68383  0.93083  1.0000
  H   H135      1.0  0.31617  0.76983  0.93083  1.0000
  H   H136      1.0  0.10317  0.12033  0.73583  1.0000
  H   H137      1.0  0.87967  0.98283  0.73583  1.0000
  H   H138      1.0  0.01717  0.89683  0.73583  1.0000
  H   H139      1.0  0.89683  0.87967  0.26417  1.0000
  H   H140      1.0  0.12033  0.01717  0.26417  1.0000
  H   H141      1.0  0.98283  0.10317  0.26417  1.0000
  H   H142      1.0  0.76983  0.45367  0.06917  1.0000
  H   H143      1.0  0.54633  0.31617  0.06917  1.0000
  H   H144      1.0  0.68383  0.23017  0.06917  1.0000
  C   C199      1.0  0.29030  0.02930  0.47870  1.0000
  C   C200      1.0  0.97070  0.26100  0.47870  1.0000
  C   C201      1.0  0.73900  0.70970  0.47870  1.0000
  C   C202      1.0  0.70970  0.97070  0.52130  1.0000
  C   C203      1.0  0.02930  0.73900  0.52130  1.0000
  C   C204      1.0  0.26100  0.29030  0.52130  1.0000
  C   C205      1.0  0.95697  0.36263  0.81203  1.0000
  C   C206      1.0  0.63737  0.59433  0.81203  1.0000
  C   C207      1.0  0.40567  0.04303  0.81203  1.0000
  C   C208      1.0  0.37637  0.30403  0.85463  1.0000
  C   C209      1.0  0.69597  0.07233  0.85463  1.0000
  C   C210      1.0  0.92767  0.62363  0.85463  1.0000
  C   C211      1.0  0.62363  0.69597  0.14537  1.0000
  C   C212      1.0  0.30403  0.92767  0.14537  1.0000
  C   C213      1.0  0.07233  0.37637  0.14537  1.0000
  C   C214      1.0  0.04303  0.63737  0.18797  1.0000
  C   C215      1.0  0.36263  0.40567  0.18797  1.0000
  C   C216      1.0  0.59433  0.95697  0.18797  1.0000
  C   C217      1.0  0.24810  0.04960  0.44390  1.0000
  C   C218      1.0  0.95040  0.19850  0.44390  1.0000
  C   C219      1.0  0.80150  0.75190  0.44390  1.0000
  C   C220      1.0  0.75190  0.95040  0.55610  1.0000
  C   C221      1.0  0.04960  0.80150  0.55610  1.0000
  C   C222      1.0  0.19850  0.24810  0.55610  1.0000
  C   C223      1.0  0.91477  0.38293  0.77723  1.0000
  C   C224      1.0  0.61707  0.53183  0.77723  1.0000
  C   C225      1.0  0.46817  0.08523  0.77723  1.0000
  C   C226      1.0  0.41857  0.28373  0.88943  1.0000
  C   C227      1.0  0.71627  0.13483  0.88943  1.0000
  C   C228      1.0  0.86517  0.58143  0.88943  1.0000
  C   C229      1.0  0.58143  0.71627  0.11057  1.0000
  C   C230      1.0  0.28373  0.86517  0.11057  1.0000
  C   C231      1.0  0.13483  0.41857  0.11057  1.0000
  C   C232      1.0  0.08523  0.61707  0.22277  1.0000
  C   C233      1.0  0.38293  0.46817  0.22277  1.0000
  C   C234      1.0  0.53183  0.91477  0.22277  1.0000
  H   H145      1.0  0.25710  0.07050  0.39110  1.0000
  H   H146      1.0  0.92950  0.18660  0.39110  1.0000
  H   H147      1.0  0.81340  0.74290  0.39110  1.0000
  H   H148      1.0  0.74290  0.92950  0.60890  1.0000
  H   H149      1.0  0.07050  0.81340  0.60890  1.0000
  H   H150      1.0  0.18660  0.25710  0.60890  1.0000
  H   H151      1.0  0.92377  0.40383  0.72443  1.0000
  H   H152      1.0  0.59617  0.51993  0.72443  1.0000
  H   H153      1.0  0.48007  0.07623  0.72443  1.0000
  H   H154      1.0  0.40957  0.26283  0.94223  1.0000
  H   H155      1.0  0.73717  0.14673  0.94223  1.0000
  H   H156      1.0  0.85327  0.59043  0.94223  1.0000
  H   H157      1.0  0.59043  0.73717  0.05777  1.0000
  H   H158      1.0  0.26283  0.85327  0.05777  1.0000
  H   H159      1.0  0.14673  0.40957  0.05777  1.0000
  H   H160      1.0  0.07623  0.59617  0.27557  1.0000
  H   H161      1.0  0.40383  0.48007  0.27557  1.0000
  H   H162      1.0  0.51993  0.92377  0.27557  1.0000
  C   C235      1.0  0.19230  0.03810  0.48970  1.0000
  C   C236      1.0  0.96190  0.15420  0.48970  1.0000
  C   C237      1.0  0.84580  0.80770  0.48970  1.0000
  C   C238      1.0  0.80770  0.96190  0.51030  1.0000
  C   C239      1.0  0.03810  0.84580  0.51030  1.0000
  C   C240      1.0  0.15420  0.19230  0.51030  1.0000
  C   C241      1.0  0.85897  0.37143  0.82303  1.0000
  C   C242      1.0  0.62857  0.48753  0.82303  1.0000
  C   C243      1.0  0.51247  0.14103  0.82303  1.0000
  C   C244      1.0  0.47437  0.29523  0.84363  1.0000
  C   C245      1.0  0.70477  0.17913  0.84363  1.0000
  C   C246      1.0  0.82087  0.52563  0.84363  1.0000
  C   C247      1.0  0.52563  0.70477  0.15637  1.0000
  C   C248      1.0  0.29523  0.82087  0.15637  1.0000
  C   C249      1.0  0.17913  0.47437  0.15637  1.0000
  C   C250      1.0  0.14103  0.62857  0.17697  1.0000
  C   C251      1.0  0.37143  0.51247  0.17697  1.0000
  C   C252      1.0  0.48753  0.85897  0.17697  1.0000
  H   H163      1.0  0.16330  0.05170  0.46810  1.0000
  H   H164      1.0  0.94830  0.11160  0.46810  1.0000
  H   H165      1.0  0.88840  0.83670  0.46810  1.0000
  H   H166      1.0  0.83670  0.94830  0.53190  1.0000
  H   H167      1.0  0.05170  0.88840  0.53190  1.0000
  H   H168      1.0  0.11160  0.16330  0.53190  1.0000
  H   H169      1.0  0.82997  0.38503  0.80143  1.0000
  H   H170      1.0  0.61497  0.44493  0.80143  1.0000
  H   H171      1.0  0.55507  0.17003  0.80143  1.0000
  H   H172      1.0  0.50337  0.28163  0.86523  1.0000
  H   H173      1.0  0.71837  0.22173  0.86523  1.0000
  H   H174      1.0  0.77827  0.49663  0.86523  1.0000
  H   H175      1.0  0.49663  0.71837  0.13477  1.0000
  H   H176      1.0  0.28163  0.77827  0.13477  1.0000
  H   H177      1.0  0.22173  0.50337  0.13477  1.0000
  H   H178      1.0  0.17003  0.61497  0.19857  1.0000
  H   H179      1.0  0.38503  0.55507  0.19857  1.0000
  H   H180      1.0  0.44493  0.82997  0.19857  1.0000
  Co  Co1       1.0  0.39885  0.07006  0.34075  1.0000
  Co  Co2       1.0  0.92994  0.32879  0.34075  1.0000
  Co  Co3       1.0  0.67121  0.60115  0.34075  1.0000
  Co  Co4       1.0  0.60115  0.92994  0.65925  1.0000
  Co  Co5       1.0  0.07006  0.67121  0.65925  1.0000
  Co  Co6       1.0  0.32879  0.39885  0.65925  1.0000
  Co  Co7       1.0  0.06552  0.40339  0.67408  1.0000
  Co  Co8       1.0  0.59661  0.66212  0.67408  1.0000
  Co  Co9       1.0  0.33788  0.93448  0.67408  1.0000
  Co  Co10      1.0  0.26782  0.26327  0.99258  1.0000
  Co  Co11      1.0  0.73673  0.00454  0.99258  1.0000
  Co  Co12      1.0  0.99546  0.73218  0.99258  1.0000
  Co  Co13      1.0  0.73218  0.73673  0.00742  1.0000
  Co  Co14      1.0  0.26327  0.99546  0.00742  1.0000
  Co  Co15      1.0  0.00454  0.26782  0.00742  1.0000
  Co  Co16      1.0  0.93448  0.59661  0.32592  1.0000
  Co  Co17      1.0  0.40339  0.33788  0.32592  1.0000
  Co  Co18      1.0  0.66212  0.06552  0.32592  1.0000
  N   N1        1.0  0.35260  0.01120  0.24270  1.0000
  N   N2        1.0  0.98880  0.34140  0.24270  1.0000
  N   N3        1.0  0.65860  0.64740  0.24270  1.0000
  N   N4        1.0  0.64740  0.98880  0.75730  1.0000
  N   N5        1.0  0.01120  0.65860  0.75730  1.0000
  N   N6        1.0  0.34140  0.35260  0.75730  1.0000
  N   N7        1.0  0.01927  0.34453  0.57603  1.0000
  N   N8        1.0  0.65547  0.67473  0.57603  1.0000
  N   N9        1.0  0.32527  0.98073  0.57603  1.0000
  N   N10       1.0  0.31407  0.32213  0.09063  1.0000
  N   N11       1.0  0.67787  0.99193  0.09063  1.0000
  N   N12       1.0  0.00807  0.68593  0.09063  1.0000
  N   N13       1.0  0.68593  0.67787  0.90937  1.0000
  N   N14       1.0  0.32213  0.00807  0.90937  1.0000
  N   N15       1.0  0.99193  0.31407  0.90937  1.0000
  N   N16       1.0  0.98073  0.65547  0.42397  1.0000
  N   N17       1.0  0.34453  0.32527  0.42397  1.0000
  N   N18       1.0  0.67473  0.01927  0.42397  1.0000
  N   N19       1.0  0.41240  0.15970  0.30630  1.0000
  N   N20       1.0  0.84030  0.25270  0.30630  1.0000
  N   N21       1.0  0.74730  0.58760  0.30630  1.0000
  N   N22       1.0  0.58760  0.84030  0.69370  1.0000
  N   N23       1.0  0.15970  0.74730  0.69370  1.0000
  N   N24       1.0  0.25270  0.41240  0.69370  1.0000
  N   N25       1.0  0.07907  0.49303  0.63963  1.0000
  N   N26       1.0  0.50697  0.58603  0.63963  1.0000
  N   N27       1.0  0.41397  0.92093  0.63963  1.0000
  N   N28       1.0  0.25427  0.17363  0.02703  1.0000
  N   N29       1.0  0.82637  0.08063  0.02703  1.0000
  N   N30       1.0  0.91937  0.74573  0.02703  1.0000
  N   N31       1.0  0.74573  0.82637  0.97297  1.0000
  N   N32       1.0  0.17363  0.91937  0.97297  1.0000
  N   N33       1.0  0.08063  0.25427  0.97297  1.0000
  N   N34       1.0  0.92093  0.50697  0.36037  1.0000
  N   N35       1.0  0.49303  0.41397  0.36037  1.0000
  N   N36       1.0  0.58603  0.07907  0.36037  1.0000
  N   N37       1.0  0.48800  0.07960  0.36680  1.0000
  N   N38       1.0  0.92040  0.40840  0.36680  1.0000
  N   N39       1.0  0.59160  0.51200  0.36680  1.0000
  N   N40       1.0  0.51200  0.92040  0.63320  1.0000
  N   N41       1.0  0.07960  0.59160  0.63320  1.0000
  N   N42       1.0  0.40840  0.48800  0.63320  1.0000
  N   N43       1.0  0.15467  0.41293  0.70013  1.0000
  N   N44       1.0  0.58707  0.74173  0.70013  1.0000
  N   N45       1.0  0.25827  0.84533  0.70013  1.0000
  N   N46       1.0  0.17867  0.25373  0.96653  1.0000
  N   N47       1.0  0.74627  0.92493  0.96653  1.0000
  N   N48       1.0  0.07507  0.82133  0.96653  1.0000
  N   N49       1.0  0.82133  0.74627  0.03347  1.0000
  N   N50       1.0  0.25373  0.07507  0.03347  1.0000
  N   N51       1.0  0.92493  0.17867  0.03347  1.0000
  N   N52       1.0  0.84533  0.58707  0.29987  1.0000
  N   N53       1.0  0.41293  0.25827  0.29987  1.0000
  N   N54       1.0  0.74173  0.15467  0.29987  1.0000
  N   N55       1.0  0.34870  0.03290  0.44820  1.0000
  N   N56       1.0  0.96710  0.31580  0.44820  1.0000
  N   N57       1.0  0.68420  0.65130  0.44820  1.0000
  N   N58       1.0  0.65130  0.96710  0.55180  1.0000
  N   N59       1.0  0.03290  0.68420  0.55180  1.0000
  N   N60       1.0  0.31580  0.34870  0.55180  1.0000
  N   N61       1.0  0.01537  0.36623  0.78153  1.0000
  N   N62       1.0  0.63377  0.64913  0.78153  1.0000
  N   N63       1.0  0.35087  0.98463  0.78153  1.0000
  N   N64       1.0  0.31797  0.30043  0.88513  1.0000
  N   N65       1.0  0.69957  0.01753  0.88513  1.0000
  N   N66       1.0  0.98247  0.68203  0.88513  1.0000
  N   N67       1.0  0.68203  0.69957  0.11487  1.0000
  N   N68       1.0  0.30043  0.98247  0.11487  1.0000
  N   N69       1.0  0.01753  0.31797  0.11487  1.0000
  N   N70       1.0  0.98463  0.63377  0.21847  1.0000
  N   N71       1.0  0.36623  0.35087  0.21847  1.0000
  N   N72       1.0  0.64913  0.01537  0.21847  1.0000
