data_image0
_chemical_formula_structural       C18H18C36H18C18H18C18H18C36H18C18H18C36H18C36H18C18H18C18H18N72Zn18
_chemical_formula_sum              "C252 H180 N72 Zn18"
_cell_length_a       22.989
_cell_length_b       22.989
_cell_length_c       15.763
_cell_angle_alpha    90
_cell_angle_beta     90
_cell_angle_gamma    120

_space_group_name_H-M_alt    "P 1"
_space_group_IT_number       1

loop_
  _space_group_symop_operation_xyz
  'x, y, z'

loop_
  _atom_site_type_symbol
  _atom_site_label
  _atom_site_symmetry_multiplicity
  _atom_site_fract_x
  _atom_site_fract_y
  _atom_site_fract_z
  _atom_site_occupancy
  C   C1        1.0  0.69950  0.02850  0.17630  1.0000
  C   C2        1.0  0.97150  0.67100  0.17630  1.0000
  C   C3        1.0  0.32900  0.30050  0.17630  1.0000
  C   C4        1.0  0.30050  0.97150  0.82370  1.0000
  C   C5        1.0  0.02850  0.32900  0.82370  1.0000
  C   C6        1.0  0.67100  0.69950  0.82370  1.0000
  C   C7        1.0  0.36617  0.36183  0.50963  1.0000
  C   C8        1.0  0.63817  0.00433  0.50963  1.0000
  C   C9        1.0  0.99567  0.63383  0.50963  1.0000
  C   C10       1.0  0.96717  0.30483  0.15703  1.0000
  C   C11       1.0  0.69517  0.66233  0.15703  1.0000
  C   C12       1.0  0.33767  0.03283  0.15703  1.0000
  C   C13       1.0  0.03283  0.69517  0.84297  1.0000
  C   C14       1.0  0.30483  0.33767  0.84297  1.0000
  C   C15       1.0  0.66233  0.96717  0.84297  1.0000
  C   C16       1.0  0.63383  0.63817  0.49037  1.0000
  C   C17       1.0  0.36183  0.99567  0.49037  1.0000
  C   C18       1.0  0.00433  0.36617  0.49037  1.0000
  H   H1        1.0  0.73820  0.07030  0.17200  1.0000
  H   H2        1.0  0.92970  0.66790  0.17200  1.0000
  H   H3        1.0  0.33210  0.26180  0.17200  1.0000
  H   H4        1.0  0.26180  0.92970  0.82800  1.0000
  H   H5        1.0  0.07030  0.33210  0.82800  1.0000
  H   H6        1.0  0.66790  0.73820  0.82800  1.0000
  H   H7        1.0  0.40487  0.40363  0.50533  1.0000
  H   H8        1.0  0.59637  0.00123  0.50533  1.0000
  H   H9        1.0  0.99877  0.59513  0.50533  1.0000
  H   H10       1.0  0.92847  0.26303  0.16133  1.0000
  H   H11       1.0  0.73697  0.66543  0.16133  1.0000
  H   H12       1.0  0.33457  0.07153  0.16133  1.0000
  H   H13       1.0  0.07153  0.73697  0.83867  1.0000
  H   H14       1.0  0.26303  0.33457  0.83867  1.0000
  H   H15       1.0  0.66543  0.92847  0.83867  1.0000
  H   H16       1.0  0.59513  0.59637  0.49467  1.0000
  H   H17       1.0  0.40363  0.99877  0.49467  1.0000
  H   H18       1.0  0.00123  0.40487  0.49467  1.0000
  C   C19       1.0  0.60880  0.94520  0.22640  1.0000
  C   C20       1.0  0.05480  0.66360  0.22640  1.0000
  C   C21       1.0  0.33640  0.39120  0.22640  1.0000
  C   C22       1.0  0.39120  0.05480  0.77360  1.0000
  C   C23       1.0  0.94520  0.33640  0.77360  1.0000
  C   C24       1.0  0.66360  0.60880  0.77360  1.0000
  C   C25       1.0  0.27547  0.27853  0.55973  1.0000
  C   C26       1.0  0.72147  0.99693  0.55973  1.0000
  C   C27       1.0  0.00307  0.72453  0.55973  1.0000
  C   C28       1.0  0.05787  0.38813  0.10693  1.0000
  C   C29       1.0  0.61187  0.66973  0.10693  1.0000
  C   C30       1.0  0.33027  0.94213  0.10693  1.0000
  C   C31       1.0  0.94213  0.61187  0.89307  1.0000
  C   C32       1.0  0.38813  0.33027  0.89307  1.0000
  C   C33       1.0  0.66973  0.05787  0.89307  1.0000
  C   C34       1.0  0.72453  0.72147  0.44027  1.0000
  C   C35       1.0  0.27853  0.00307  0.44027  1.0000
  C   C36       1.0  0.99693  0.27547  0.44027  1.0000
  C   C37       1.0  0.55290  0.90140  0.27220  1.0000
  C   C38       1.0  0.09860  0.65150  0.27220  1.0000
  C   C39       1.0  0.34850  0.44710  0.27220  1.0000
  C   C40       1.0  0.44710  0.09860  0.72780  1.0000
  C   C41       1.0  0.90140  0.34850  0.72780  1.0000
  C   C42       1.0  0.65150  0.55290  0.72780  1.0000
  C   C43       1.0  0.21957  0.23473  0.60553  1.0000
  C   C44       1.0  0.76527  0.98483  0.60553  1.0000
  C   C45       1.0  0.01517  0.78043  0.60553  1.0000
  C   C46       1.0  0.11377  0.43193  0.06113  1.0000
  C   C47       1.0  0.56807  0.68183  0.06113  1.0000
  C   C48       1.0  0.31817  0.88623  0.06113  1.0000
  C   C49       1.0  0.88623  0.56807  0.93887  1.0000
  C   C50       1.0  0.43193  0.31817  0.93887  1.0000
  C   C51       1.0  0.68183  0.11377  0.93887  1.0000
  C   C52       1.0  0.78043  0.76527  0.39447  1.0000
  C   C53       1.0  0.23473  0.01517  0.39447  1.0000
  C   C54       1.0  0.98483  0.21957  0.39447  1.0000
  H   H19       1.0  0.54360  0.91310  0.32480  1.0000
  H   H20       1.0  0.08690  0.63050  0.32480  1.0000
  H   H21       1.0  0.36950  0.45640  0.32480  1.0000
  H   H22       1.0  0.45640  0.08690  0.67520  1.0000
  H   H23       1.0  0.91310  0.36950  0.67520  1.0000
  H   H24       1.0  0.63050  0.54360  0.67520  1.0000
  H   H25       1.0  0.21027  0.24643  0.65813  1.0000
  H   H26       1.0  0.75357  0.96383  0.65813  1.0000
  H   H27       1.0  0.03617  0.78973  0.65813  1.0000
  H   H28       1.0  0.12307  0.42023  0.00853  1.0000
  H   H29       1.0  0.57977  0.70283  0.00853  1.0000
  H   H30       1.0  0.29717  0.87693  0.00853  1.0000
  H   H31       1.0  0.87693  0.57977  0.99147  1.0000
  H   H32       1.0  0.42023  0.29717  0.99147  1.0000
  H   H33       1.0  0.70283  0.12307  0.99147  1.0000
  H   H34       1.0  0.78973  0.75357  0.34187  1.0000
  H   H35       1.0  0.24643  0.03617  0.34187  1.0000
  H   H36       1.0  0.96383  0.21027  0.34187  1.0000
  C   C55       1.0  0.51170  0.83960  0.23700  1.0000
  C   C56       1.0  0.16040  0.67210  0.23700  1.0000
  C   C57       1.0  0.32790  0.48830  0.23700  1.0000
  C   C58       1.0  0.48830  0.16040  0.76300  1.0000
  C   C59       1.0  0.83960  0.32790  0.76300  1.0000
  C   C60       1.0  0.67210  0.51170  0.76300  1.0000
  C   C61       1.0  0.17837  0.17293  0.57033  1.0000
  C   C62       1.0  0.82707  0.00543  0.57033  1.0000
  C   C63       1.0  0.99457  0.82163  0.57033  1.0000
  C   C64       1.0  0.15497  0.49373  0.09633  1.0000
  C   C65       1.0  0.50627  0.66123  0.09633  1.0000
  C   C66       1.0  0.33877  0.84503  0.09633  1.0000
  C   C67       1.0  0.84503  0.50627  0.90367  1.0000
  C   C68       1.0  0.49373  0.33877  0.90367  1.0000
  C   C69       1.0  0.66123  0.15497  0.90367  1.0000
  C   C70       1.0  0.82163  0.82707  0.42967  1.0000
  C   C71       1.0  0.17293  0.99457  0.42967  1.0000
  C   C72       1.0  0.00543  0.17837  0.42967  1.0000
  H   H37       1.0  0.47380  0.80870  0.26670  1.0000
  H   H38       1.0  0.19130  0.66510  0.26670  1.0000
  H   H39       1.0  0.33490  0.52620  0.26670  1.0000
  H   H40       1.0  0.52620  0.19130  0.73330  1.0000
  H   H41       1.0  0.80870  0.33490  0.73330  1.0000
  H   H42       1.0  0.66510  0.47380  0.73330  1.0000
  H   H43       1.0  0.14047  0.14203  0.60003  1.0000
  H   H44       1.0  0.85797  0.99843  0.60003  1.0000
  H   H45       1.0  0.00157  0.85953  0.60003  1.0000
  H   H46       1.0  0.19287  0.52463  0.06663  1.0000
  H   H47       1.0  0.47537  0.66823  0.06663  1.0000
  H   H48       1.0  0.33177  0.80713  0.06663  1.0000
  H   H49       1.0  0.80713  0.47537  0.93337  1.0000
  H   H50       1.0  0.52463  0.33177  0.93337  1.0000
  H   H51       1.0  0.66823  0.19287  0.93337  1.0000
  H   H52       1.0  0.85953  0.85797  0.39997  1.0000
  H   H53       1.0  0.14203  0.00157  0.39997  1.0000
  H   H54       1.0  0.99843  0.14047  0.39997  1.0000
  C   C73       1.0  0.52510  0.82150  0.15630  1.0000
  C   C74       1.0  0.17850  0.70360  0.15630  1.0000
  C   C75       1.0  0.29640  0.47490  0.15630  1.0000
  C   C76       1.0  0.47490  0.17850  0.84370  1.0000
  C   C77       1.0  0.82150  0.29640  0.84370  1.0000
  C   C78       1.0  0.70360  0.52510  0.84370  1.0000
  C   C79       1.0  0.19177  0.15483  0.48963  1.0000
  C   C80       1.0  0.84517  0.03693  0.48963  1.0000
  C   C81       1.0  0.96307  0.80823  0.48963  1.0000
  C   C82       1.0  0.14157  0.51183  0.17703  1.0000
  C   C83       1.0  0.48817  0.62973  0.17703  1.0000
  C   C84       1.0  0.37027  0.85843  0.17703  1.0000
  C   C85       1.0  0.85843  0.48817  0.82297  1.0000
  C   C86       1.0  0.51183  0.37027  0.82297  1.0000
  C   C87       1.0  0.62973  0.14157  0.82297  1.0000
  C   C88       1.0  0.80823  0.84517  0.51037  1.0000
  C   C89       1.0  0.15483  0.96307  0.51037  1.0000
  C   C90       1.0  0.03693  0.19177  0.51037  1.0000
  H   H55       1.0  0.49600  0.77900  0.13450  1.0000
  H   H56       1.0  0.22100  0.71700  0.13450  1.0000
  H   H57       1.0  0.28300  0.50400  0.13450  1.0000
  H   H58       1.0  0.50400  0.22100  0.86550  1.0000
  H   H59       1.0  0.77900  0.28300  0.86550  1.0000
  H   H60       1.0  0.71700  0.49600  0.86550  1.0000
  H   H61       1.0  0.16267  0.11233  0.46783  1.0000
  H   H62       1.0  0.88767  0.05033  0.46783  1.0000
  H   H63       1.0  0.94967  0.83733  0.46783  1.0000
  H   H64       1.0  0.17067  0.55433  0.19883  1.0000
  H   H65       1.0  0.44567  0.61633  0.19883  1.0000
  H   H66       1.0  0.38367  0.82933  0.19883  1.0000
  H   H67       1.0  0.82933  0.44567  0.80117  1.0000
  H   H68       1.0  0.55433  0.38367  0.80117  1.0000
  H   H69       1.0  0.61633  0.17067  0.80117  1.0000
  H   H70       1.0  0.83733  0.88767  0.53217  1.0000
  H   H71       1.0  0.11233  0.94967  0.53217  1.0000
  H   H72       1.0  0.05033  0.16267  0.53217  1.0000
  C   C91       1.0  0.73930  0.02820  0.47960  1.0000
  C   C92       1.0  0.97180  0.71110  0.47960  1.0000
  C   C93       1.0  0.28890  0.26070  0.47960  1.0000
  C   C94       1.0  0.26070  0.97180  0.52040  1.0000
  C   C95       1.0  0.02820  0.28890  0.52040  1.0000
  C   C96       1.0  0.71110  0.73930  0.52040  1.0000
  C   C97       1.0  0.40597  0.36153  0.81293  1.0000
  C   C98       1.0  0.63847  0.04443  0.81293  1.0000
  C   C99       1.0  0.95557  0.59403  0.81293  1.0000
  C   C100      1.0  0.92737  0.30513  0.85373  1.0000
  C   C101      1.0  0.69487  0.62223  0.85373  1.0000
  C   C102      1.0  0.37777  0.07263  0.85373  1.0000
  C   C103      1.0  0.07263  0.69487  0.14627  1.0000
  C   C104      1.0  0.30513  0.37777  0.14627  1.0000
  C   C105      1.0  0.62223  0.92737  0.14627  1.0000
  C   C106      1.0  0.59403  0.63847  0.18707  1.0000
  C   C107      1.0  0.36153  0.95557  0.18707  1.0000
  C   C108      1.0  0.04443  0.40597  0.18707  1.0000
  C   C109      1.0  0.80130  0.04800  0.44340  1.0000
  C   C110      1.0  0.95200  0.75330  0.44340  1.0000
  C   C111      1.0  0.24670  0.19870  0.44340  1.0000
  C   C112      1.0  0.19870  0.95200  0.55660  1.0000
  C   C113      1.0  0.04800  0.24670  0.55660  1.0000
  C   C114      1.0  0.75330  0.80130  0.55660  1.0000
  C   C115      1.0  0.46797  0.38133  0.77673  1.0000
  C   C116      1.0  0.61867  0.08663  0.77673  1.0000
  C   C117      1.0  0.91337  0.53203  0.77673  1.0000
  C   C118      1.0  0.86537  0.28533  0.88993  1.0000
  C   C119      1.0  0.71467  0.58003  0.88993  1.0000
  C   C120      1.0  0.41997  0.13463  0.88993  1.0000
  C   C121      1.0  0.13463  0.71467  0.11007  1.0000
  C   C122      1.0  0.28533  0.41997  0.11007  1.0000
  C   C123      1.0  0.58003  0.86537  0.11007  1.0000
  C   C124      1.0  0.53203  0.61867  0.22327  1.0000
  C   C125      1.0  0.38133  0.91337  0.22327  1.0000
  C   C126      1.0  0.08663  0.46797  0.22327  1.0000
  H   H73       1.0  0.81260  0.06790  0.39000  1.0000
  H   H74       1.0  0.93210  0.74470  0.39000  1.0000
  H   H75       1.0  0.25530  0.18740  0.39000  1.0000
  H   H76       1.0  0.18740  0.93210  0.61000  1.0000
  H   H77       1.0  0.06790  0.25530  0.61000  1.0000
  H   H78       1.0  0.74470  0.81260  0.61000  1.0000
  H   H79       1.0  0.47927  0.40123  0.72333  1.0000
  H   H80       1.0  0.59877  0.07803  0.72333  1.0000
  H   H81       1.0  0.92197  0.52073  0.72333  1.0000
  H   H82       1.0  0.85407  0.26543  0.94333  1.0000
  H   H83       1.0  0.73457  0.58863  0.94333  1.0000
  H   H84       1.0  0.41137  0.14593  0.94333  1.0000
  H   H85       1.0  0.14593  0.73457  0.05667  1.0000
  H   H86       1.0  0.26543  0.41137  0.05667  1.0000
  H   H87       1.0  0.58863  0.85407  0.05667  1.0000
  H   H88       1.0  0.52073  0.59877  0.27667  1.0000
  H   H89       1.0  0.40123  0.92197  0.27667  1.0000
  H   H90       1.0  0.07803  0.47927  0.27667  1.0000
  C   C127      1.0  0.53450  0.05960  0.32690  1.0000
  C   C128      1.0  0.94040  0.47490  0.32690  1.0000
  C   C129      1.0  0.52510  0.46550  0.32690  1.0000
  C   C130      1.0  0.46550  0.94040  0.67310  1.0000
  C   C131      1.0  0.05960  0.52510  0.67310  1.0000
  C   C132      1.0  0.47490  0.53450  0.67310  1.0000
  C   C133      1.0  0.20117  0.39293  0.66023  1.0000
  C   C134      1.0  0.60707  0.80823  0.66023  1.0000
  C   C135      1.0  0.19177  0.79883  0.66023  1.0000
  C   C136      1.0  0.13217  0.27373  0.00643  1.0000
  C   C137      1.0  0.72627  0.85843  0.00643  1.0000
  C   C138      1.0  0.14157  0.86783  0.00643  1.0000
  C   C139      1.0  0.86783  0.72627  0.99357  1.0000
  C   C140      1.0  0.27373  0.14157  0.99357  1.0000
  C   C141      1.0  0.85843  0.13217  0.99357  1.0000
  C   C142      1.0  0.79883  0.60707  0.33977  1.0000
  C   C143      1.0  0.39293  0.19177  0.33977  1.0000
  C   C144      1.0  0.80823  0.20117  0.33977  1.0000
  H   H91       1.0  0.52300  0.03190  0.27960  1.0000
  H   H92       1.0  0.96810  0.49110  0.27960  1.0000
  H   H93       1.0  0.50890  0.47700  0.27960  1.0000
  H   H94       1.0  0.47700  0.96810  0.72040  1.0000
  H   H95       1.0  0.03190  0.50890  0.72040  1.0000
  H   H96       1.0  0.49110  0.52300  0.72040  1.0000
  H   H97       1.0  0.18967  0.36523  0.61293  1.0000
  H   H98       1.0  0.63477  0.82443  0.61293  1.0000
  H   H99       1.0  0.17557  0.81033  0.61293  1.0000
  H   H100      1.0  0.14367  0.30143  0.05373  1.0000
  H   H101      1.0  0.69857  0.84223  0.05373  1.0000
  H   H102      1.0  0.15777  0.85633  0.05373  1.0000
  H   H103      1.0  0.85633  0.69857  0.94627  1.0000
  H   H104      1.0  0.30143  0.15777  0.94627  1.0000
  H   H105      1.0  0.84223  0.14367  0.94627  1.0000
  H   H106      1.0  0.81033  0.63477  0.38707  1.0000
  H   H107      1.0  0.36523  0.17557  0.38707  1.0000
  H   H108      1.0  0.82443  0.18967  0.38707  1.0000
  C   C145      1.0  0.59030  0.12020  0.43060  1.0000
  C   C146      1.0  0.87980  0.47010  0.43060  1.0000
  C   C147      1.0  0.52990  0.40970  0.43060  1.0000
  C   C148      1.0  0.40970  0.87980  0.56940  1.0000
  C   C149      1.0  0.12020  0.52990  0.56940  1.0000
  C   C150      1.0  0.47010  0.59030  0.56940  1.0000
  C   C151      1.0  0.25697  0.45353  0.76393  1.0000
  C   C152      1.0  0.54647  0.80343  0.76393  1.0000
  C   C153      1.0  0.19657  0.74303  0.76393  1.0000
  C   C154      1.0  0.07637  0.21313  0.90273  1.0000
  C   C155      1.0  0.78687  0.86323  0.90273  1.0000
  C   C156      1.0  0.13677  0.92363  0.90273  1.0000
  C   C157      1.0  0.92363  0.78687  0.09727  1.0000
  C   C158      1.0  0.21313  0.13677  0.09727  1.0000
  C   C159      1.0  0.86323  0.07637  0.09727  1.0000
  C   C160      1.0  0.74303  0.54647  0.23607  1.0000
  C   C161      1.0  0.45353  0.19657  0.23607  1.0000
  C   C162      1.0  0.80343  0.25697  0.23607  1.0000
  C   C163      1.0  0.63720  0.15650  0.49660  1.0000
  C   C164      1.0  0.84350  0.48070  0.49660  1.0000
  C   C165      1.0  0.51930  0.36280  0.49660  1.0000
  C   C166      1.0  0.36280  0.84350  0.50340  1.0000
  C   C167      1.0  0.15650  0.51930  0.50340  1.0000
  C   C168      1.0  0.48070  0.63720  0.50340  1.0000
  C   C169      1.0  0.30387  0.48983  0.82993  1.0000
  C   C170      1.0  0.51017  0.81403  0.82993  1.0000
  C   C171      1.0  0.18597  0.69613  0.82993  1.0000
  C   C172      1.0  0.02947  0.17683  0.83673  1.0000
  C   C173      1.0  0.82317  0.85263  0.83673  1.0000
  C   C174      1.0  0.14737  0.97053  0.83673  1.0000
  C   C175      1.0  0.97053  0.82317  0.16327  1.0000
  C   C176      1.0  0.17683  0.14737  0.16327  1.0000
  C   C177      1.0  0.85263  0.02947  0.16327  1.0000
  C   C178      1.0  0.69613  0.51017  0.17007  1.0000
  C   C179      1.0  0.48983  0.18597  0.17007  1.0000
  C   C180      1.0  0.81403  0.30387  0.17007  1.0000
  H   H109      1.0  0.67730  0.15620  0.50090  1.0000
  H   H110      1.0  0.84380  0.52110  0.50090  1.0000
  H   H111      1.0  0.47890  0.32270  0.50090  1.0000
  H   H112      1.0  0.32270  0.84380  0.49910  1.0000
  H   H113      1.0  0.15620  0.47890  0.49910  1.0000
  H   H114      1.0  0.52110  0.67730  0.49910  1.0000
  H   H115      1.0  0.34397  0.48953  0.83423  1.0000
  H   H116      1.0  0.51047  0.85443  0.83423  1.0000
  H   H117      1.0  0.14557  0.65603  0.83423  1.0000
  H   H118      1.0  0.98937  0.17713  0.83243  1.0000
  H   H119      1.0  0.82287  0.81223  0.83243  1.0000
  H   H120      1.0  0.18777  0.01063  0.83243  1.0000
  H   H121      1.0  0.01063  0.82287  0.16757  1.0000
  H   H122      1.0  0.17713  0.18777  0.16757  1.0000
  H   H123      1.0  0.81223  0.98937  0.16757  1.0000
  H   H124      1.0  0.65603  0.51047  0.16577  1.0000
  H   H125      1.0  0.48953  0.14557  0.16577  1.0000
  H   H126      1.0  0.85443  0.34397  0.16577  1.0000
  C   C181      1.0  0.74430  0.19720  0.24000  1.0000
  C   C182      1.0  0.80280  0.54710  0.24000  1.0000
  C   C183      1.0  0.45290  0.25570  0.24000  1.0000
  C   C184      1.0  0.25570  0.80280  0.76000  1.0000
  C   C185      1.0  0.19720  0.45290  0.76000  1.0000
  C   C186      1.0  0.54710  0.74430  0.76000  1.0000
  C   C187      1.0  0.41097  0.53053  0.57333  1.0000
  C   C188      1.0  0.46947  0.88043  0.57333  1.0000
  C   C189      1.0  0.11957  0.58903  0.57333  1.0000
  C   C190      1.0  0.92237  0.13613  0.09333  1.0000
  C   C191      1.0  0.86387  0.78623  0.09333  1.0000
  C   C192      1.0  0.21377  0.07763  0.09333  1.0000
  C   C193      1.0  0.07763  0.86387  0.90667  1.0000
  C   C194      1.0  0.13613  0.21377  0.90667  1.0000
  C   C195      1.0  0.78623  0.92237  0.90667  1.0000
  C   C196      1.0  0.58903  0.46947  0.42667  1.0000
  C   C197      1.0  0.53053  0.11957  0.42667  1.0000
  C   C198      1.0  0.88043  0.41097  0.42667  1.0000
  C   C199      1.0  0.69050  0.17970  0.18020  1.0000
  C   C200      1.0  0.82030  0.51080  0.18020  1.0000
  C   C201      1.0  0.48920  0.30950  0.18020  1.0000
  C   C202      1.0  0.30950  0.82030  0.81980  1.0000
  C   C203      1.0  0.17970  0.48920  0.81980  1.0000
  C   C204      1.0  0.51080  0.69050  0.81980  1.0000
  C   C205      1.0  0.35717  0.51303  0.51353  1.0000
  C   C206      1.0  0.48697  0.84413  0.51353  1.0000
  C   C207      1.0  0.15587  0.64283  0.51353  1.0000
  C   C208      1.0  0.97617  0.15363  0.15313  1.0000
  C   C209      1.0  0.84637  0.82253  0.15313  1.0000
  C   C210      1.0  0.17747  0.02383  0.15313  1.0000
  C   C211      1.0  0.02383  0.84637  0.84687  1.0000
  C   C212      1.0  0.15363  0.17747  0.84687  1.0000
  C   C213      1.0  0.82253  0.97617  0.84687  1.0000
  C   C214      1.0  0.64283  0.48697  0.48647  1.0000
  C   C215      1.0  0.51303  0.15587  0.48647  1.0000
  C   C216      1.0  0.84413  0.35717  0.48647  1.0000
  H   H127      1.0  0.65050  0.13890  0.18320  1.0000
  H   H128      1.0  0.86110  0.51160  0.18320  1.0000
  H   H129      1.0  0.48840  0.34950  0.18320  1.0000
  H   H130      1.0  0.34950  0.86110  0.81680  1.0000
  H   H131      1.0  0.13890  0.48840  0.81680  1.0000
  H   H132      1.0  0.51160  0.65050  0.81680  1.0000
  H   H133      1.0  0.31717  0.47223  0.51653  1.0000
  H   H134      1.0  0.52777  0.84493  0.51653  1.0000
  H   H135      1.0  0.15507  0.68283  0.51653  1.0000
  H   H136      1.0  0.01617  0.19443  0.15013  1.0000
  H   H137      1.0  0.80557  0.82173  0.15013  1.0000
  H   H138      1.0  0.17827  0.98383  0.15013  1.0000
  H   H139      1.0  0.98383  0.80557  0.84987  1.0000
  H   H140      1.0  0.19443  0.17827  0.84987  1.0000
  H   H141      1.0  0.82173  0.01617  0.84987  1.0000
  H   H142      1.0  0.68283  0.52777  0.48347  1.0000
  H   H143      1.0  0.47223  0.15507  0.48347  1.0000
  H   H144      1.0  0.84493  0.31717  0.48347  1.0000
  C   C217      1.0  0.62190  0.19150  0.55290  1.0000
  C   C218      1.0  0.80850  0.43040  0.55290  1.0000
  C   C219      1.0  0.56960  0.37810  0.55290  1.0000
  C   C220      1.0  0.37810  0.80850  0.44710  1.0000
  C   C221      1.0  0.19150  0.56960  0.44710  1.0000
  C   C222      1.0  0.43040  0.62190  0.44710  1.0000
  C   C223      1.0  0.28857  0.52483  0.88623  1.0000
  C   C224      1.0  0.47517  0.76373  0.88623  1.0000
  C   C225      1.0  0.23627  0.71143  0.88623  1.0000
  C   C226      1.0  0.04477  0.14183  0.78043  1.0000
  C   C227      1.0  0.85817  0.90293  0.78043  1.0000
  C   C228      1.0  0.09707  0.95523  0.78043  1.0000
  C   C229      1.0  0.95523  0.85817  0.21957  1.0000
  C   C230      1.0  0.14183  0.09707  0.21957  1.0000
  C   C231      1.0  0.90293  0.04477  0.21957  1.0000
  C   C232      1.0  0.71143  0.47517  0.11377  1.0000
  C   C233      1.0  0.52483  0.23627  0.11377  1.0000
  C   C234      1.0  0.76373  0.28857  0.11377  1.0000
  H   H145      1.0  0.65270  0.21580  0.59530  1.0000
  H   H146      1.0  0.78420  0.43690  0.59530  1.0000
  H   H147      1.0  0.56310  0.34730  0.59530  1.0000
  H   H148      1.0  0.34730  0.78420  0.40470  1.0000
  H   H149      1.0  0.21580  0.56310  0.40470  1.0000
  H   H150      1.0  0.43690  0.65270  0.40470  1.0000
  H   H151      1.0  0.31937  0.54913  0.92863  1.0000
  H   H152      1.0  0.45087  0.77023  0.92863  1.0000
  H   H153      1.0  0.22977  0.68063  0.92863  1.0000
  H   H154      1.0  0.01397  0.11753  0.73803  1.0000
  H   H155      1.0  0.88247  0.89643  0.73803  1.0000
  H   H156      1.0  0.10357  0.98603  0.73803  1.0000
  H   H157      1.0  0.98603  0.88247  0.26197  1.0000
  H   H158      1.0  0.11753  0.10357  0.26197  1.0000
  H   H159      1.0  0.89643  0.01397  0.26197  1.0000
  H   H160      1.0  0.68063  0.45087  0.07137  1.0000
  H   H161      1.0  0.54913  0.22977  0.07137  1.0000
  H   H162      1.0  0.77023  0.31937  0.07137  1.0000
  C   C235      1.0  0.70170  0.22710  0.11750  1.0000
  C   C236      1.0  0.77290  0.47460  0.11750  1.0000
  C   C237      1.0  0.52540  0.29830  0.11750  1.0000
  C   C238      1.0  0.29830  0.77290  0.88250  1.0000
  C   C239      1.0  0.22710  0.52540  0.88250  1.0000
  C   C240      1.0  0.47460  0.70170  0.88250  1.0000
  C   C241      1.0  0.36837  0.56043  0.45083  1.0000
  C   C242      1.0  0.43957  0.80793  0.45083  1.0000
  C   C243      1.0  0.19207  0.63163  0.45083  1.0000
  C   C244      1.0  0.96497  0.10623  0.21583  1.0000
  C   C245      1.0  0.89377  0.85873  0.21583  1.0000
  C   C246      1.0  0.14127  0.03503  0.21583  1.0000
  C   C247      1.0  0.03503  0.89377  0.78417  1.0000
  C   C248      1.0  0.10623  0.14127  0.78417  1.0000
  C   C249      1.0  0.85873  0.96497  0.78417  1.0000
  C   C250      1.0  0.63163  0.43957  0.54917  1.0000
  C   C251      1.0  0.56043  0.19207  0.54917  1.0000
  C   C252      1.0  0.80793  0.36837  0.54917  1.0000
  H   H163      1.0  0.66830  0.21840  0.07800  1.0000
  H   H164      1.0  0.78160  0.44990  0.07800  1.0000
  H   H165      1.0  0.55010  0.33170  0.07800  1.0000
  H   H166      1.0  0.33170  0.78160  0.92200  1.0000
  H   H167      1.0  0.21840  0.55010  0.92200  1.0000
  H   H168      1.0  0.44990  0.66830  0.92200  1.0000
  H   H169      1.0  0.33497  0.55173  0.41133  1.0000
  H   H170      1.0  0.44827  0.78323  0.41133  1.0000
  H   H171      1.0  0.21677  0.66503  0.41133  1.0000
  H   H172      1.0  0.99837  0.11493  0.25533  1.0000
  H   H173      1.0  0.88507  0.88343  0.25533  1.0000
  H   H174      1.0  0.11657  0.00163  0.25533  1.0000
  H   H175      1.0  0.00163  0.88507  0.74467  1.0000
  H   H176      1.0  0.11493  0.11657  0.74467  1.0000
  H   H177      1.0  0.88343  0.99837  0.74467  1.0000
  H   H178      1.0  0.66503  0.44827  0.58867  1.0000
  H   H179      1.0  0.55173  0.21677  0.58867  1.0000
  H   H180      1.0  0.78323  0.33497  0.58867  1.0000
  N   N1        1.0  0.65890  0.01130  0.24330  1.0000
  N   N2        1.0  0.98870  0.64760  0.24330  1.0000
  N   N3        1.0  0.35240  0.34110  0.24330  1.0000
  N   N4        1.0  0.34110  0.98870  0.75670  1.0000
  N   N5        1.0  0.01130  0.35240  0.75670  1.0000
  N   N6        1.0  0.64760  0.65890  0.75670  1.0000
  N   N7        1.0  0.32557  0.34463  0.57663  1.0000
  N   N8        1.0  0.65537  0.98093  0.57663  1.0000
  N   N9        1.0  0.01907  0.67443  0.57663  1.0000
  N   N10       1.0  0.00777  0.32203  0.09003  1.0000
  N   N11       1.0  0.67797  0.68573  0.09003  1.0000
  N   N12       1.0  0.31427  0.99223  0.09003  1.0000
  N   N13       1.0  0.99223  0.67797  0.90997  1.0000
  N   N14       1.0  0.32203  0.31427  0.90997  1.0000
  N   N15       1.0  0.68573  0.00777  0.90997  1.0000
  N   N16       1.0  0.67443  0.65537  0.42337  1.0000
  N   N17       1.0  0.34463  0.01907  0.42337  1.0000
  N   N18       1.0  0.98093  0.32557  0.42337  1.0000
  N   N19       1.0  0.74800  0.16040  0.30920  1.0000
  N   N20       1.0  0.83960  0.58760  0.30920  1.0000
  N   N21       1.0  0.41240  0.25200  0.30920  1.0000
  N   N22       1.0  0.25200  0.83960  0.69080  1.0000
  N   N23       1.0  0.16040  0.41240  0.69080  1.0000
  N   N24       1.0  0.58760  0.74800  0.69080  1.0000
  N   N25       1.0  0.41467  0.49373  0.64253  1.0000
  N   N26       1.0  0.50627  0.92093  0.64253  1.0000
  N   N27       1.0  0.07907  0.58533  0.64253  1.0000
  N   N28       1.0  0.91867  0.17293  0.02413  1.0000
  N   N29       1.0  0.82707  0.74573  0.02413  1.0000
  N   N30       1.0  0.25427  0.08133  0.02413  1.0000
  N   N31       1.0  0.08133  0.82707  0.97587  1.0000
  N   N32       1.0  0.17293  0.25427  0.97587  1.0000
  N   N33       1.0  0.74573  0.91867  0.97587  1.0000
  N   N34       1.0  0.58533  0.50627  0.35747  1.0000
  N   N35       1.0  0.49373  0.07907  0.35747  1.0000
  N   N36       1.0  0.92093  0.41467  0.35747  1.0000
  N   N37       1.0  0.68480  0.03270  0.44850  1.0000
  N   N38       1.0  0.96730  0.65210  0.44850  1.0000
  N   N39       1.0  0.34790  0.31520  0.44850  1.0000
  N   N40       1.0  0.31520  0.96730  0.55150  1.0000
  N   N41       1.0  0.03270  0.34790  0.55150  1.0000
  N   N42       1.0  0.65210  0.68480  0.55150  1.0000
  N   N43       1.0  0.35147  0.36603  0.78183  1.0000
  N   N44       1.0  0.63397  0.98543  0.78183  1.0000
  N   N45       1.0  0.01457  0.64853  0.78183  1.0000
  N   N46       1.0  0.98187  0.30063  0.88483  1.0000
  N   N47       1.0  0.69937  0.68123  0.88483  1.0000
  N   N48       1.0  0.31877  0.01813  0.88483  1.0000
  N   N49       1.0  0.01813  0.69937  0.11517  1.0000
  N   N50       1.0  0.30063  0.31877  0.11517  1.0000
  N   N51       1.0  0.68123  0.98187  0.11517  1.0000
  N   N52       1.0  0.64853  0.63397  0.21817  1.0000
  N   N53       1.0  0.36603  0.01457  0.21817  1.0000
  N   N54       1.0  0.98543  0.35147  0.21817  1.0000
  N   N55       1.0  0.59230  0.08110  0.36610  1.0000
  N   N56       1.0  0.91890  0.51120  0.36610  1.0000
  N   N57       1.0  0.48880  0.40770  0.36610  1.0000
  N   N58       1.0  0.40770  0.91890  0.63390  1.0000
  N   N59       1.0  0.08110  0.48880  0.63390  1.0000
  N   N60       1.0  0.51120  0.59230  0.63390  1.0000
  N   N61       1.0  0.25897  0.41443  0.69943  1.0000
  N   N62       1.0  0.58557  0.84453  0.69943  1.0000
  N   N63       1.0  0.15547  0.74103  0.69943  1.0000
  N   N64       1.0  0.07437  0.25223  0.96723  1.0000
  N   N65       1.0  0.74777  0.82213  0.96723  1.0000
  N   N66       1.0  0.17787  0.92563  0.96723  1.0000
  N   N67       1.0  0.92563  0.74777  0.03277  1.0000
  N   N68       1.0  0.25223  0.17787  0.03277  1.0000
  N   N69       1.0  0.82213  0.07437  0.03277  1.0000
  N   N70       1.0  0.74103  0.58557  0.30057  1.0000
  N   N71       1.0  0.41443  0.15547  0.30057  1.0000
  N   N72       1.0  0.84453  0.25897  0.30057  1.0000
  Zn  Zn1       1.0  0.67190  0.07047  0.34160  1.0000
  Zn  Zn2       1.0  0.92953  0.60143  0.34160  1.0000
  Zn  Zn3       1.0  0.39857  0.32810  0.34160  1.0000
  Zn  Zn4       1.0  0.32810  0.92953  0.65840  1.0000
  Zn  Zn5       1.0  0.07047  0.39857  0.65840  1.0000
  Zn  Zn6       1.0  0.60143  0.67190  0.65840  1.0000
  Zn  Zn7       1.0  0.33857  0.40380  0.67493  1.0000
  Zn  Zn8       1.0  0.59620  0.93476  0.67493  1.0000
  Zn  Zn9       1.0  0.06524  0.66143  0.67493  1.0000
  Zn  Zn10      1.0  0.99477  0.26286  0.99173  1.0000
  Zn  Zn11      1.0  0.73714  0.73190  0.99173  1.0000
  Zn  Zn12      1.0  0.26810  0.00523  0.99173  1.0000
  Zn  Zn13      1.0  0.00523  0.73714  0.00827  1.0000
  Zn  Zn14      1.0  0.26286  0.26810  0.00827  1.0000
  Zn  Zn15      1.0  0.73190  0.99477  0.00827  1.0000
  Zn  Zn16      1.0  0.66143  0.59620  0.32507  1.0000
  Zn  Zn17      1.0  0.40380  0.06524  0.32507  1.0000
  Zn  Zn18      1.0  0.93476  0.33857  0.32507  1.0000
