data_crystal

_cell_length_a    14.79550
_cell_length_b    14.79550
_cell_length_c    11.77850
_cell_angle_alpha 90.00000
_cell_angle_beta  90.00000
_cell_angle_gamma 90.00000

_space_group_name_Hall 'P 1'
_space_group_name_H-M_alt 'P 1'

loop_
_symmetry_equiv_pos_as_xyz
 'x,y,z'

loop_
_atom_site_label
_atom_site_type_symbol
_atom_site_fract_x
_atom_site_fract_y
_atom_site_fract_z
O          O       0.62129   0.38032   0.60089
O          O       0.60389   0.28756   0.74260
C          C       0.59271   0.36141   0.69627
C          C       0.54277   0.43043   0.75788
C          C       0.54277   0.43043   0.87633
H          H       0.57401   0.37962   0.91959
O          O       0.12129   0.88032   0.10089
O          O       0.10389   0.78756   0.24260
C          C       0.09271   0.86141   0.19627
C          C       0.04277   0.93043   0.25788
C          C       0.04277   0.93043   0.37633
H          H       0.07401   0.87962   0.41959
O          O       0.87871   0.11968   0.10089
O          O       0.89611   0.21244   0.24260
C          C       0.90729   0.13859   0.19627
C          C       0.95723   0.06957   0.25788
C          C       0.95723   0.06957   0.37633
H          H       0.92599   0.12038   0.41959
O          O       0.37871   0.61968   0.60089
O          O       0.39611   0.71244   0.74260
C          C       0.40729   0.63859   0.69627
C          C       0.45723   0.56957   0.75788
C          C       0.45723   0.56957   0.87633
H          H       0.42599   0.62038   0.91959
O          O       0.61968   0.12129   0.85089
O          O       0.71244   0.10389   0.99260
C          C       0.63859   0.09271   0.94627
C          C       0.56957   0.04277   0.00788
C          C       0.56957   0.04277   0.12633
H          H       0.62038   0.07401   0.16959
O          O       0.11968   0.62129   0.35089
O          O       0.21244   0.60389   0.49260
C          C       0.13859   0.59271   0.44627
C          C       0.06957   0.54277   0.50788
C          C       0.06957   0.54277   0.62633
H          H       0.12038   0.57401   0.66959
O          O       0.88032   0.37871   0.35089
O          O       0.78756   0.39611   0.49260
C          C       0.86141   0.40729   0.44627
C          C       0.93043   0.45723   0.50788
C          C       0.93043   0.45723   0.62633
H          H       0.87962   0.42599   0.66959
O          O       0.38032   0.87871   0.85089
O          O       0.28756   0.89611   0.99260
C          C       0.36141   0.90729   0.94627
C          C       0.43043   0.95723   0.00788
C          C       0.43043   0.95723   0.12633
H          H       0.37962   0.92599   0.16959
O          O       0.87871   0.38032   0.14911
O          O       0.89611   0.28756   0.00740
C          C       0.90729   0.36141   0.05373
C          C       0.95723   0.43043   0.99212
C          C       0.95723   0.43043   0.87367
H          H       0.92599   0.37962   0.83041
O          O       0.37871   0.88032   0.64911
O          O       0.39611   0.78756   0.50740
C          C       0.40729   0.86141   0.55373
C          C       0.45723   0.93043   0.49212
C          C       0.45723   0.93043   0.37367
H          H       0.42599   0.87962   0.33041
O          O       0.62129   0.11968   0.64911
O          O       0.60389   0.21244   0.50740
C          C       0.59271   0.13859   0.55373
C          C       0.54277   0.06957   0.49212
C          C       0.54277   0.06957   0.37367
H          H       0.57401   0.12038   0.33041
O          O       0.12129   0.61968   0.14911
O          O       0.10389   0.71244   0.00740
C          C       0.09271   0.63859   0.05373
C          C       0.04277   0.56957   0.99212
C          C       0.04277   0.56957   0.87367
H          H       0.07401   0.62038   0.83041
O          O       0.88032   0.12129   0.89911
O          O       0.78756   0.10389   0.75740
C          C       0.86141   0.09271   0.80373
C          C       0.93043   0.04277   0.74212
C          C       0.93043   0.04277   0.62367
H          H       0.87962   0.07401   0.58041
O          O       0.38032   0.62129   0.39911
O          O       0.28756   0.60389   0.25740
C          C       0.36141   0.59271   0.30373
C          C       0.43043   0.54277   0.24212
C          C       0.43043   0.54277   0.12367
H          H       0.37962   0.57401   0.08041
O          O       0.61968   0.37871   0.39911
O          O       0.71244   0.39611   0.25740
C          C       0.63859   0.40729   0.30373
C          C       0.56957   0.45723   0.24212
C          C       0.56957   0.45723   0.12367
H          H       0.62038   0.42599   0.08041
O          O       0.11968   0.87871   0.89911
O          O       0.21244   0.89611   0.75740
C          C       0.13859   0.90729   0.80373
C          C       0.06957   0.95723   0.74212
C          C       0.06957   0.95723   0.62367
H          H       0.12038   0.92599   0.58041
Al         Al      0.69236   0.30764   0.50000
Al         Al      0.19236   0.80764   0.00000
Al         Al      0.80764   0.19236   0.00000
Al         Al      0.30764   0.69236   0.50000
Al         Al      0.69236   0.19236   0.75000
Al         Al      0.19236   0.69236   0.25000
Al         Al      0.80764   0.30764   0.25000
Al         Al      0.30764   0.80764   0.75000
O          O       0.75199   0.25000   0.62500
H          H       0.81282   0.25000   0.62500
O          O       0.25199   0.75000   0.12500
H          H       0.31282   0.75000   0.12500
O          O       0.74801   0.25000   0.12500
H          H       0.68718   0.25000   0.12500
O          O       0.24801   0.75000   0.62500
H          H       0.18718   0.75000   0.62500
O          O       0.75000   0.25199   0.87500
H          H       0.75000   0.31282   0.87500
O          O       0.25000   0.75199   0.37500
H          H       0.25000   0.81282   0.37500
O          O       0.75000   0.24801   0.37500
H          H       0.75000   0.18718   0.37500
O          O       0.25000   0.74801   0.87500
H          H       0.25000   0.68718   0.87500
C          C       0.50000   0.50000   0.69866
C          C       0.50000   0.50000   0.93556
H          H       0.50000   0.50000   0.61214
C          C       0.00000   0.00000   0.19866
C          C       0.00000   0.00000   0.43556
H          H       0.00000   0.00000   0.11214
C          C       0.50000   0.00000   0.94866
C          C       0.50000   0.00000   0.18556
H          H       0.50000   0.00000   0.86214
C          C       0.00000   0.50000   0.44866
C          C       0.00000   0.50000   0.68556
H          H       0.00000   0.50000   0.36214
C          C       0.00000   0.50000   0.05134
C          C       0.00000   0.50000   0.81444
H          H       0.00000   0.50000   0.13786
C          C       0.50000   0.00000   0.55134
C          C       0.50000   0.00000   0.31444
H          H       0.50000   0.00000   0.63786
C          C       0.00000   0.00000   0.80134
C          C       0.00000   0.00000   0.56444
H          H       0.00000   0.00000   0.88786
C          C       0.50000   0.50000   0.30134
C          C       0.50000   0.50000   0.06444
H          H       0.50000   0.50000   0.38786
